                        MODFLOW-ADJOINT Version 0.96 07/14/2007
            SENSITIVITY CALCULATIONS USING THE ADJOINT STATE METHOD FOR
      U.S. GEOLOGICAL SURVEY MODULAR FINITE-DIFFERENCE GROUND-WATER FLOW MODEL
                             VERSION 1.1 05/18/2006

 LIST FILE: three_layers.lst
                         UNIT    7

 OPENING three_layers.bas
 FILE TYPE:BAS6   UNIT    1   STATUS:OLD    
 FORMAT:FORMATTED              ACCESS:SEQUENTIAL          

 OPENING three_layers.dis
 FILE TYPE:DIS   UNIT   29   STATUS:OLD    
 FORMAT:FORMATTED              ACCESS:SEQUENTIAL          

 OPENING three_layers.lpf
 FILE TYPE:LPF   UNIT   11   STATUS:OLD    
 FORMAT:FORMATTED              ACCESS:SEQUENTIAL          

 OPENING three_layers.zon
 FILE TYPE:ZONE   UNIT   13   STATUS:OLD    
 FORMAT:FORMATTED              ACCESS:SEQUENTIAL          

 OPENING three_layers.wel
 FILE TYPE:WEL   UNIT   12   STATUS:OLD    
 FORMAT:FORMATTED              ACCESS:SEQUENTIAL          

 OPENING three_layers.oc
 FILE TYPE:OC   UNIT   22   STATUS:OLD    
 FORMAT:FORMATTED              ACCESS:SEQUENTIAL          

 OPENING three_layers.mlt
 FILE TYPE:MULT   UNIT    8   STATUS:OLD    
 FORMAT:FORMATTED              ACCESS:SEQUENTIAL          

 OPENING three_layers.pcg
 FILE TYPE:PCG   UNIT   19   STATUS:OLD    
 FORMAT:FORMATTED              ACCESS:SEQUENTIAL          

 OPENING three_layers.chd
 FILE TYPE:CHD   UNIT   40   STATUS:OLD    
 FORMAT:FORMATTED              ACCESS:SEQUENTIAL          

 OPENING three_layers.hob
 FILE TYPE:HOB   UNIT   18   STATUS:OLD    
 FORMAT:FORMATTED              ACCESS:SEQUENTIAL          

 OPENING three_layers.hbs
 FILE TYPE:DATA   UNIT   14   STATUS:UNKNOWN
 FORMAT:FORMATTED              ACCESS:SEQUENTIAL          

 OPENING three_layers.cbb
 FILE TYPE:DATA(BINARY)   UNIT   50   STATUS:UNKNOWN
 FORMAT:UNFORMATTED            ACCESS:SEQUENTIAL          

 OPENING three_layers.cbw
 FILE TYPE:DATA(BINARY)   UNIT   54   STATUS:UNKNOWN
 FORMAT:UNFORMATTED            ACCESS:SEQUENTIAL          

 OPENING three_layers.hds
 FILE TYPE:DATA(BINARY)   UNIT   30   STATUS:UNKNOWN
 FORMAT:UNFORMATTED            ACCESS:SEQUENTIAL          

 OPENING three_layers.ddn
 FILE TYPE:DATA(BINARY)   UNIT   31   STATUS:UNKNOWN
 FORMAT:UNFORMATTED            ACCESS:SEQUENTIAL          

 BAS -- BASIC PACKAGE, VERSION 7, 5/2/2005 INPUT READ FROM UNIT    1

 DISCRETIZATION INPUT DATA READ FROM UNIT   29
 # Discretization File
 # Upper left corner: (0, 0)
 # Lower left corner: (0, -60)
 # Upper right corner: (70, 0)
 # Lower right corner: (70, -60)
    3 LAYERS        40 ROWS        35 COLUMNS
    1 STRESS PERIOD(S) IN SIMULATION
 MODEL TIME UNIT IS SECONDS
 MODEL LENGTH UNIT IS METERS
  Confining bed flag for each layer:
   0   0   0

                     DELR =   2.00000    

                     DELC =   1.50000    

 TOP ELEVATION OF LAYER 1 =   40.0000    

   MODEL LAYER BOTTOM EL. =   32.0000     FOR LAYER   1

   MODEL LAYER BOTTOM EL. =   18.0000     FOR LAYER   2

   MODEL LAYER BOTTOM EL. =   0.00000     FOR LAYER   3


 STRESS PERIOD     LENGTH       TIME STEPS     MULTIPLIER FOR DELT    SS FLAG
 ----------------------------------------------------------------------------
        1         1.000000          1                    1.000         SS

 STEADY-STATE SIMULATION



 
 # Basic Package file created                                                    
 THE FREE FORMAT OPTION HAS BEEN SELECTED

           BOUNDARY ARRAY =              1 FOR LAYER   1

           BOUNDARY ARRAY =              1 FOR LAYER   2

           BOUNDARY ARRAY =              1 FOR LAYER   3

 AQUIFER HEAD WILL BE SET TO  999.00     AT ALL NO-FLOW NODES (IBOUND=0).

             INITIAL HEAD =   60.0000     FOR LAYER   1

             INITIAL HEAD =   60.0000     FOR LAYER   2

             INITIAL HEAD =   60.0000     FOR LAYER   3

 OUTPUT CONTROL IS SPECIFIED ONLY AT TIME STEPS FOR WHICH OUTPUT IS DESIRED
 HEAD PRINT FORMAT CODE IS   0    DRAWDOWN PRINT FORMAT CODE IS   0
 HEADS WILL BE SAVED ON UNIT   30    DRAWDOWNS WILL BE SAVED ON UNIT   31

 ZONE OPTION, INPUT READ FROM UNIT   13
 # Zone (ZONE) File
     3 ZONE ARRAYS

 MULTIPLIER OPTION, INPUT READ FROM UNIT    8
 # Multiplier (MULT)
   3 MULTIPLIER ARRAYS



            MULT. ARRAY: HK_Par1_M1
 READING ON UNIT    8 WITH FORMAT: (FREE)              

            1           2           3           4           5           6           7           8           9          10
           11          12          13          14          15          16          17          18          19          20
           21          22          23          24          25          26          27          28          29          30
           31          32          33          34          35
 ........................................................................................................................
   1   2.9803E-03  2.9725E-03  2.8232E-03  2.6133E-03  2.3739E-03  2.1065E-03  1.8523E-03  1.6804E-03  1.6166E-03  1.6118E-03
       1.5798E-03  1.4986E-03  1.4496E-03  1.5284E-03  1.7513E-03  2.0012E-03  2.0862E-03  1.9708E-03  1.8066E-03  1.7000E-03
       1.6200E-03  1.4962E-03  1.3471E-03  1.2617E-03  1.2861E-03  1.3661E-03  1.3770E-03  1.2687E-03  1.1403E-03  1.0946E-03
       1.1295E-03  1.1496E-03  1.0760E-03  9.6338E-04  9.2287E-04
   2   3.0375E-03  3.0285E-03  2.8705E-03  2.6490E-03  2.3971E-03  2.1169E-03  1.8518E-03  1.6726E-03  1.6051E-03  1.5979E-03
       1.5628E-03  1.4775E-03  1.4252E-03  1.5028E-03  1.7271E-03  1.9793E-03  2.0634E-03  1.9432E-03  1.7742E-03  1.6647E-03
       1.5827E-03  1.4571E-03  1.3067E-03  1.2208E-03  1.2448E-03  1.3247E-03  1.3354E-03  1.2270E-03  1.0989E-03  1.0536E-03
       1.0886E-03  1.1092E-03  1.0365E-03  9.2522E-04  8.8585E-04
   3   3.0738E-03  3.0627E-03  2.8955E-03  2.6620E-03  2.3974E-03  2.1045E-03  1.8285E-03  1.6414E-03  1.5676E-03  1.5542E-03
       1.5125E-03  1.4209E-03  1.3627E-03  1.4325E-03  1.6459E-03  1.8863E-03  1.9613E-03  1.8374E-03  1.6681E-03  1.5583E-03
       1.4764E-03  1.3538E-03  1.2085E-03  1.1257E-03  1.1478E-03  1.2232E-03  1.2331E-03  1.1298E-03  1.0086E-03  9.6609E-04
       9.9990E-04  1.0205E-03  9.5312E-04  8.4958E-04  8.1441E-04
   4   3.1007E-03  3.0869E-03  2.9101E-03  2.6643E-03  2.3867E-03  2.0811E-03  1.7942E-03  1.5986E-03  1.5169E-03  1.4948E-03
       1.4444E-03  1.3454E-03  1.2799E-03  1.3380E-03  1.5332E-03  1.7531E-03  1.8147E-03  1.6887E-03  1.5227E-03  1.4152E-03
       1.3355E-03  1.2192E-03  1.0834E-03  1.0061E-03  1.0256E-03  1.0944E-03  1.1031E-03  1.0081E-03  8.9706E-04  8.5865E-04
       8.9044E-04  9.1071E-04  8.5071E-04  7.5795E-04  7.2826E-04
   5   3.1276E-03  3.1112E-03  2.9248E-03  2.6666E-03  2.3758E-03  2.0574E-03  1.7597E-03  1.5552E-03  1.4651E-03  1.4336E-03
       1.3738E-03  1.2673E-03  1.1943E-03  1.2400E-03  1.4151E-03  1.6124E-03  1.6603E-03  1.5341E-03  1.3739E-03  1.2705E-03
       1.1944E-03  1.0862E-03  9.6133E-04  8.9055E-04  9.0802E-04  9.7040E-04  9.7818E-04  8.9183E-04  7.9134E-04  7.5696E-04
       7.8647E-04  8.0607E-04  7.5326E-04  6.7104E-04  6.4648E-04
   6   3.1562E-03  3.1375E-03  2.9420E-03  2.6721E-03  2.3688E-03  2.0381E-03  1.7299E-03  1.5171E-03  1.4190E-03  1.3787E-03
       1.3102E-03  1.1968E-03  1.1171E-03  1.1518E-03  1.3088E-03  1.4860E-03  1.5226E-03  1.3980E-03  1.2447E-03  1.1466E-03
       1.0753E-03  9.7553E-04  8.6115E-04  7.9679E-04  8.1338E-04  8.7122E-04  8.7881E-04  7.9973E-04  7.0781E-04  6.7665E-04
       7.0420E-04  7.2304E-04  6.7574E-04  6.0177E-04  5.8107E-04
   7   3.1829E-03  3.1621E-03  2.9588E-03  2.6786E-03  2.3645E-03  2.0232E-03  1.7059E-03  1.4860E-03  1.3812E-03  1.3336E-03
       1.2578E-03  1.1388E-03  1.0538E-03  1.0798E-03  1.2229E-03  1.3850E-03  1.4141E-03  1.2924E-03  1.1463E-03  1.0540E-03
       9.8818E-04  8.9623E-04  7.9078E-04  7.3217E-04  7.4943E-04  8.0544E-04  8.1375E-04  7.3968E-04  6.5328E-04  6.2416E-04
       6.5043E-04  6.6865E-04  6.2460E-04  5.5562E-04  5.3720E-04
   8   3.2062E-03  3.1839E-03  2.9742E-03  2.6861E-03  2.3636E-03  2.0138E-03  1.6893E-03  1.4638E-03  1.3541E-03  1.3011E-03
       1.2198E-03  1.0964E-03  1.0075E-03  1.0277E-03  1.1616E-03  1.3146E-03  1.3402E-03  1.2222E-03  1.0826E-03  9.9625E-04
       9.3617E-04  8.5103E-04  7.5243E-04  6.9868E-04  7.1833E-04  7.7568E-04  7.8575E-04  7.1399E-04  6.2955E-04  6.0113E-04
       6.2698E-04  6.4484E-04  6.0153E-04  5.3397E-04  5.1621E-04
   9   3.2301E-03  3.2069E-03  2.9926E-03  2.6987E-03  2.3702E-03  2.0139E-03  1.6836E-03  1.4538E-03  1.3409E-03  1.2845E-03
       1.1992E-03  1.0721E-03  9.8026E-04  9.9706E-04  1.1270E-03  1.2768E-03  1.3026E-03  1.1882E-03  1.0539E-03  9.7326E-04
       9.1907E-04  8.3959E-04  7.4566E-04  6.9587E-04  7.1986E-04  7.8199E-04  7.9500E-04  7.2266E-04  6.3637E-04  6.0722E-04
       6.3349E-04  6.5128E-04  6.0610E-04  5.3624E-04  5.1757E-04
  10   3.2575E-03  3.2342E-03  3.0169E-03  2.7194E-03  2.3868E-03  2.0256E-03  1.6905E-03  1.4573E-03  1.3424E-03  1.2841E-03
       1.1960E-03  1.0653E-03  9.7085E-04  9.8634E-04  1.1165E-03  1.2684E-03  1.2972E-03  1.1861E-03  1.0558E-03  9.8049E-04
       9.3245E-04  8.5781E-04  7.6679E-04  7.2042E-04  7.5080E-04  8.2123E-04  8.3845E-04  7.6280E-04  6.7098E-04  6.3964E-04
       6.6707E-04  6.8494E-04  6.3531E-04  5.5965E-04  5.3857E-04
  11   3.2798E-03  3.2568E-03  3.0382E-03  2.7394E-03  2.4052E-03  2.0414E-03  1.7031E-03  1.4677E-03  1.3519E-03  1.2930E-03
       1.2027E-03  1.0686E-03  9.7171E-04  9.8693E-04  1.1195E-03  1.2763E-03  1.3099E-03  1.2020E-03  1.0751E-03  1.0054E-03
       9.6415E-04  8.9435E-04  8.0564E-04  7.6280E-04  8.0143E-04  8.8301E-04  9.0559E-04  8.2474E-04  7.2470E-04  6.9002E-04
       7.1898E-04  7.3686E-04  6.8082E-04  5.9681E-04  5.7222E-04
  12   3.2742E-03  3.2511E-03  3.0335E-03  2.7369E-03  2.4052E-03  2.0429E-03  1.7050E-03  1.4699E-03  1.3548E-03  1.2960E-03
       1.2042E-03  1.0677E-03  9.6873E-04  9.8350E-04  1.1177E-03  1.2782E-03  1.3163E-03  1.2122E-03  1.0897E-03  1.0264E-03
       9.9270E-04  9.2876E-04  8.4338E-04  8.0490E-04  8.5251E-04  9.4600E-04  9.7445E-04  8.8835E-04  7.7977E-04  7.4146E-04
       7.7170E-04  7.8928E-04  7.2648E-04  6.3387E-04  6.0565E-04
  13   3.2199E-03  3.1956E-03  2.9814E-03  2.6914E-03  2.3676E-03  2.0127E-03  1.6807E-03  1.4495E-03  1.3364E-03  1.2782E-03
       1.1859E-03  1.0483E-03  9.4834E-04  9.6128E-04  1.0929E-03  1.2520E-03  1.2919E-03  1.1928E-03  1.0767E-03  1.0204E-03
       9.9453E-04  9.3779E-04  8.5791E-04  8.2478E-04  8.8004E-04  9.8281E-04  1.0163E-03  9.2719E-04  8.1292E-04  7.7194E-04
       8.0253E-04  8.1937E-04  7.5182E-04  6.5359E-04  6.2306E-04
  14   3.1228E-03  3.0961E-03  2.8876E-03  2.6076E-03  2.2958E-03  1.9531E-03  1.6316E-03  1.4072E-03  1.2971E-03  1.2392E-03
       1.1466E-03  1.0094E-03  9.0898E-04  9.1819E-04  1.0421E-03  1.1930E-03  1.2309E-03  1.1371E-03  1.0287E-03  9.7918E-04
       9.5995E-04  9.1083E-04  8.3823E-04  8.1067E-04  8.7017E-04  9.7679E-04  1.0129E-03  9.2430E-04  8.0922E-04  7.6728E-04
       7.9687E-04  8.1252E-04  7.4391E-04  6.4527E-04  6.1473E-04
  15   3.0252E-03  2.9964E-03  2.7940E-03  2.5245E-03  2.2249E-03  1.8946E-03  1.5834E-03  1.3655E-03  1.2576E-03  1.1990E-03
       1.1053E-03  9.6769E-04  8.6599E-04  8.6991E-04  9.8308E-04  1.1218E-03  1.1543E-03  1.0643E-03  9.6260E-04  9.1801E-04
       9.0310E-04  8.6028E-04  7.9479E-04  7.7168E-04  8.3165E-04  9.3659E-04  9.7255E-04  8.8662E-04  7.7454E-04  7.3293E-04
       7.6017E-04  7.7416E-04  7.0772E-04  6.1322E-04  5.8464E-04
  16   2.9879E-03  2.9590E-03  2.7612E-03  2.4987E-03  2.2065E-03  1.8823E-03  1.5749E-03  1.3587E-03  1.2504E-03  1.1895E-03
       1.0917E-03  9.4968E-04  8.4352E-04  8.4115E-04  9.4446E-04  1.0716E-03  1.0970E-03  1.0070E-03  9.0829E-04  8.6560E-04
       8.5226E-04  8.1301E-04  7.5222E-04  7.3147E-04  7.8957E-04  8.9003E-04  9.2356E-04  8.3982E-04  7.3111E-04  6.8965E-04
       7.1365E-04  7.2549E-04  6.6218E-04  5.7334E-04  5.4738E-04
  17   3.0590E-03  3.0339E-03  2.8377E-03  2.5763E-03  2.2833E-03  1.9545E-03  1.6397E-03  1.4168E-03  1.3041E-03  1.2384E-03
       1.1319E-03  9.7824E-04  8.6198E-04  8.5241E-04  9.4951E-04  1.0693E-03  1.0869E-03  9.9148E-04  8.8997E-04  8.4566E-04
       8.3136E-04  7.9234E-04  7.3247E-04  7.1168E-04  7.6754E-04  8.6389E-04  8.9383E-04  8.0918E-04  7.0082E-04  6.5796E-04
       6.7828E-04  6.8744E-04  6.2593E-04  5.4130E-04  5.1729E-04
  18   3.2487E-03  3.2318E-03  3.0354E-03  2.7699E-03  2.4687E-03  2.1247E-03  1.7908E-03  1.5524E-03  1.4313E-03  1.3585E-03
       1.2377E-03  1.0635E-03  9.3001E-04  9.1194E-04  1.0071E-03  1.1247E-03  1.1339E-03  1.0268E-03  9.1609E-04  8.6662E-04
       8.4927E-04  8.0729E-04  7.4437E-04  7.2134E-04  7.7571E-04  8.6999E-04  8.9582E-04  8.0604E-04  6.9345E-04  6.4696E-04
       6.6337E-04  6.6934E-04  6.0728E-04  5.2404E-04  5.0082E-04
  19   3.5119E-03  3.5073E-03  3.3119E-03  3.0420E-03  2.7308E-03  2.3673E-03  2.0082E-03  1.7499E-03  1.6188E-03  1.5379E-03
       1.3986E-03  1.1965E-03  1.0394E-03  1.0113E-03  1.1076E-03  1.2264E-03  1.2264E-03  1.1022E-03  9.7718E-04  9.1987E-04
       8.9799E-04  8.5075E-04  7.8185E-04  7.5497E-04  8.0868E-04  9.0267E-04  9.2401E-04  8.2561E-04  7.0498E-04  6.5299E-04
       6.6529E-04  6.6764E-04  6.0310E-04  5.1896E-04  4.9560E-04
  20   3.7521E-03  3.7610E-03  3.5709E-03  3.3031E-03  2.9892E-03  2.6130E-03  2.2341E-03  1.9599E-03  1.8218E-03  1.7351E-03
       1.5776E-03  1.3458E-03  1.1632E-03  1.1242E-03  1.2221E-03  1.3429E-03  1.3328E-03  1.1898E-03  1.0489E-03  9.8301E-04
       9.5628E-04  9.0323E-04  8.2756E-04  7.9643E-04  8.4970E-04  9.4387E-04  9.6048E-04  8.5235E-04  7.2250E-04  6.6444E-04
       6.7256E-04  6.7118E-04  6.0366E-04  5.1797E-04  4.9421E-04
  21   3.8718E-03  3.8906E-03  3.7118E-03  3.4569E-03  3.1542E-03  2.7821E-03  2.3998E-03  2.1218E-03  1.9845E-03  1.8974E-03
       1.7276E-03  1.4720E-03  1.2680E-03  1.2194E-03  1.3175E-03  1.4383E-03  1.4188E-03  1.2598E-03  1.1059E-03  1.0330E-03
       1.0025E-03  9.4503E-04  8.6416E-04  8.2967E-04  8.8236E-04  9.7609E-04  9.8822E-04  8.7182E-04  7.3434E-04  6.7106E-04
       6.7526E-04  6.7051E-04  6.0080E-04  5.1438E-04  4.9052E-04
  22   3.8498E-03  3.8733E-03  3.7102E-03  3.4777E-03  3.1998E-03  2.8491E-03  2.4815E-03  2.2139E-03  2.0861E-03  2.0052E-03
       1.8314E-03  1.5616E-03  1.3431E-03  1.2873E-03  1.3845E-03  1.5041E-03  1.4769E-03  1.3065E-03  1.1437E-03  1.0665E-03
       1.0338E-03  9.7396E-04  8.9006E-04  8.5353E-04  9.0580E-04  9.9884E-04  1.0072E-03  8.8435E-04  7.4107E-04  6.7359E-04
       6.7433E-04  6.6667E-04  5.9554E-04  5.0906E-04  4.8535E-04
  23   3.7629E-03  3.7885E-03  3.6432E-03  3.4379E-03  3.1914E-03  2.8712E-03  2.5281E-03  2.2789E-03  2.1667E-03  2.0973E-03
       1.9248E-03  1.6456E-03  1.4161E-03  1.3550E-03  1.4530E-03  1.5729E-03  1.5397E-03  1.3591E-03  1.1883E-03  1.1073E-03
       1.0734E-03  1.0116E-03  9.2484E-04  8.8661E-04  9.3954E-04  1.0333E-03  1.0383E-03  9.0813E-04  7.5764E-04  6.8531E-04
       6.8270E-04  6.7209E-04  5.9860E-04  5.1085E-04  4.8679E-04
  24   3.7234E-03  3.7538E-03  3.6270E-03  3.4493E-03  3.2347E-03  2.9447E-03  2.6254E-03  2.3953E-03  2.3017E-03  2.2474E-03
       2.0763E-03  1.7832E-03  1.5380E-03  1.4717E-03  1.5753E-03  1.7012E-03  1.6620E-03  1.4654E-03  1.2807E-03  1.1935E-03
       1.1574E-03  1.0916E-03  9.9863E-04  9.5720E-04  1.0128E-03  1.1107E-03  1.1121E-03  9.6883E-04  8.0468E-04  7.2412E-04
       7.1743E-04  7.0282E-04  6.2366E-04  5.3095E-04  5.0507E-04
  25   3.8054E-03  3.8470E-03  3.7403E-03  3.5901E-03  3.4063E-03  3.1427E-03  2.8418E-03  2.6284E-03  2.5565E-03  2.5216E-03
       2.3486E-03  2.0292E-03  1.7566E-03  1.6826E-03  1.7992E-03  1.9393E-03  1.8916E-03  1.6667E-03  1.4563E-03  1.3571E-03
       1.3163E-03  1.2419E-03  1.1364E-03  1.0884E-03  1.1490E-03  1.2555E-03  1.2517E-03  1.0854E-03  8.9695E-04  8.0240E-04
       7.8986E-04  7.6910E-04  6.7923E-04  5.7616E-04  5.4630E-04
  26   4.0087E-03  4.0686E-03  3.9853E-03  3.8653E-03  3.7145E-03  3.4769E-03  3.1918E-03  2.9954E-03  2.9513E-03  2.9428E-03
       2.7650E-03  2.4051E-03  2.0907E-03  2.0054E-03  2.1421E-03  2.3040E-03  2.2433E-03  1.9744E-03  1.7241E-03  1.6055E-03
       1.5561E-03  1.4674E-03  1.3418E-03  1.2831E-03  1.3500E-03  1.4681E-03  1.4561E-03  1.2561E-03  1.0322E-03  9.1739E-04
       8.9652E-04  8.6702E-04  7.6150E-04  6.4314E-04  6.0728E-04
  27   4.2551E-03  4.3371E-03  4.2809E-03  4.1958E-03  4.0837E-03  3.8777E-03  3.6135E-03  3.4401E-03  3.4323E-03  3.4582E-03
       3.2769E-03  2.8689E-03  2.5036E-03  2.4034E-03  2.5626E-03  2.7481E-03  2.6686E-03  2.3445E-03  2.0441E-03  1.9003E-03
       1.8385E-03  1.7310E-03  1.5804E-03  1.5073E-03  1.5792E-03  1.7081E-03  1.6844E-03  1.4454E-03  1.1813E-03  1.0431E-03
       1.0121E-03  9.7227E-04  8.4956E-04  7.1471E-04  6.7225E-04
  28   4.4221E-03  4.5224E-03  4.4935E-03  4.4455E-03  4.3770E-03  4.2109E-03  3.9782E-03  3.8368E-03  3.8712E-03  3.9362E-03
       3.7571E-03  3.3072E-03  2.8946E-03  2.7780E-03  2.9531E-03  3.1537E-03  3.0512E-03  2.6732E-03  2.3250E-03  2.1556E-03
       2.0796E-03  1.9534E-03  1.7796E-03  1.6922E-03  1.7647E-03  1.8978E-03  1.8613E-03  1.5897E-03  1.2933E-03  1.1359E-03
       1.0954E-03  1.0466E-03  9.1120E-04  7.6483E-04  7.1774E-04
  29   4.4198E-03  4.5278E-03  4.5211E-03  4.5066E-03  4.4800E-03  4.3584E-03  4.1665E-03  4.0634E-03  4.1385E-03  4.2390E-03
       4.0695E-03  3.5973E-03  3.1543E-03  3.0233E-03  3.2006E-03  3.4001E-03  3.2744E-03  2.8589E-03  2.4790E-03  2.2907E-03
       2.2026E-03  2.0632E-03  1.8752E-03  1.7777E-03  1.8455E-03  1.9742E-03  1.9270E-03  1.6402E-03  1.3303E-03  1.1640E-03
       1.1176E-03  1.0640E-03  9.2488E-04  7.7632E-04  7.2844E-04
  30   4.2551E-03  4.3596E-03  4.3673E-03  4.3785E-03  4.3867E-03  4.3078E-03  4.1598E-03  4.0955E-03  4.2036E-03  4.3313E-03
       4.1774E-03  3.7052E-03  3.2530E-03  3.1119E-03  3.2789E-03  3.4634E-03  3.3194E-03  2.8881E-03  2.4967E-03  2.2993E-03
       2.2035E-03  2.0587E-03  1.8673E-03  1.7656E-03  1.8257E-03  1.9439E-03  1.8904E-03  1.6057E-03  1.3006E-03  1.1356E-03
       1.0872E-03  1.0331E-03  8.9836E-04  7.5552E-04  7.1011E-04
  31   4.0074E-03  4.1024E-03  4.1187E-03  4.1485E-03  4.1838E-03  4.1425E-03  4.0363E-03  4.0077E-03  4.1419E-03  4.2902E-03
       4.1556E-03  3.6984E-03  3.2519E-03  3.1060E-03  3.2584E-03  3.4237E-03  3.2675E-03  2.8353E-03  2.4456E-03  2.2464E-03
       2.1469E-03  2.0020E-03  1.8137E-03  1.7119E-03  1.7645E-03  1.8715E-03  1.8151E-03  1.5405E-03  1.2477E-03  1.0885E-03
       1.0404E-03  9.8784E-04  8.6017E-04  7.2554E-04  6.8357E-04
  32   3.7473E-03  3.8318E-03  3.8540E-03  3.8979E-03  3.9549E-03  3.9460E-03  3.8780E-03  3.8820E-03  4.0391E-03  4.2063E-03
       4.0937E-03  3.6590E-03  3.2257E-03  3.0799E-03  3.2210E-03  3.3711E-03  3.2088E-03  2.7814E-03  2.3977E-03  2.1996E-03
       2.0994E-03  1.9565E-03  1.7726E-03  1.6721E-03  1.7197E-03  1.8187E-03  1.7609E-03  1.4950E-03  1.2122E-03  1.0576E-03
       1.0097E-03  9.5826E-04  8.3582E-04  7.0713E-04  6.6759E-04
  33   3.4835E-03  3.5570E-03  3.5827E-03  3.6370E-03  3.7108E-03  3.7296E-03  3.6960E-03  3.7300E-03  3.9076E-03  4.0930E-03
       4.0058E-03  3.6004E-03  3.1876E-03  3.0479E-03  3.1834E-03  3.3252E-03  3.1634E-03  2.7454E-03  2.3703E-03  2.1764E-03
       2.0782E-03  1.9391E-03  1.7599E-03  1.6618E-03  1.7077E-03  1.8030E-03  1.7450E-03  1.4840E-03  1.2060E-03  1.0531E-03
       1.0049E-03  9.5342E-04  8.3303E-04  7.0673E-04  6.6811E-04
  34   3.1720E-03  3.2314E-03  3.2565E-03  3.3148E-03  3.3977E-03  3.4369E-03  3.4320E-03  3.4900E-03  3.6805E-03  3.8780E-03
       3.8192E-03  3.4559E-03  3.0775E-03  2.9520E-03  3.0851E-03  3.2228E-03  3.0714E-03  2.6754E-03  2.3193E-03  2.1362E-03
       2.0453E-03  1.9147E-03  1.7447E-03  1.6522E-03  1.6995E-03  1.7943E-03  1.7387E-03  1.4836E-03  1.2105E-03  1.0594E-03
       1.0112E-03  9.5987E-04  8.4054E-04  7.1526E-04  6.7693E-04
  35   2.7729E-03  2.8135E-03  2.8317E-03  2.8849E-03  2.9652E-03  3.0135E-03  3.0277E-03  3.0983E-03  3.2860E-03  3.4809E-03
       3.4494E-03  3.1440E-03  2.8188E-03  2.7160E-03  2.8443E-03  2.9767E-03  2.8475E-03  2.4951E-03  2.1767E-03  2.0156E-03
       1.9391E-03  1.8253E-03  1.6733E-03  1.5927E-03  1.6430E-03  1.7379E-03  1.6896E-03  1.4498E-03  1.1900E-03  1.0458E-03
       1.0002E-03  9.5122E-04  8.3595E-04  7.1433E-04  6.7733E-04
  36   2.3073E-03  2.3268E-03  2.3337E-03  2.3740E-03  2.4410E-03  2.4865E-03  2.5080E-03  2.5776E-03  2.7443E-03  2.9188E-03
       2.9080E-03  2.6691E-03  2.4099E-03  2.3335E-03  2.4505E-03  2.5717E-03  2.4726E-03  2.1828E-03  1.9195E-03  1.7899E-03
       1.7330E-03  1.6429E-03  1.5179E-03  1.4547E-03  1.5076E-03  1.6006E-03  1.5642E-03  1.3525E-03  1.1195E-03  9.8997E-04
       9.5050E-04  9.0742E-04  8.0183E-04  6.8930E-04  6.5582E-04
  37   1.8567E-03  1.8582E-03  1.8539E-03  1.8793E-03  1.9287E-03  1.9647E-03  1.9848E-03  2.0441E-03  2.1803E-03  2.3240E-03
       2.3247E-03  2.1469E-03  1.9509E-03  1.8979E-03  1.9984E-03  2.1033E-03  2.0333E-03  1.8095E-03  1.6050E-03  1.5081E-03
       1.4705E-03  1.4050E-03  1.3094E-03  1.2645E-03  1.3177E-03  1.4055E-03  1.3824E-03  1.2063E-03  1.0084E-03  8.9883E-04
       8.6774E-04  8.3287E-04  7.4124E-04  6.4213E-04  6.1397E-04
  38   1.5048E-03  1.4947E-03  1.4828E-03  1.4965E-03  1.5310E-03  1.5572E-03  1.5730E-03  1.6204E-03  1.7284E-03  1.8431E-03
       1.8483E-03  1.7154E-03  1.5675E-03  1.5307E-03  1.6147E-03  1.7031E-03  1.6545E-03  1.4837E-03  1.3269E-03  1.2556E-03
       1.2321E-03  1.1859E-03  1.1142E-03  1.0837E-03  1.1351E-03  1.2158E-03  1.2033E-03  1.0599E-03  8.9522E-04  8.0457E-04
       7.8130E-04  7.5428E-04  6.7654E-04  5.9101E-04  5.6822E-04
  39   1.2934E-03  1.2778E-03  1.2622E-03  1.2693E-03  1.2947E-03  1.3145E-03  1.3267E-03  1.3657E-03  1.4549E-03  1.5501E-03
       1.5564E-03  1.4499E-03  1.3308E-03  1.3030E-03  1.3753E-03  1.4517E-03  1.4153E-03  1.2773E-03  1.1500E-03  1.0941E-03
       1.0786E-03  1.0437E-03  9.8673E-04  9.6488E-04  1.0137E-03  1.0883E-03  1.0821E-03  9.6082E-04  8.1895E-04  7.4128E-04
       7.2320E-04  7.0151E-04  6.3354E-04  5.5765E-04  5.3863E-04
  40   1.2293E-03  1.2124E-03  1.1961E-03  1.2010E-03  1.2232E-03  1.2405E-03  1.2513E-03  1.2869E-03  1.3682E-03  1.4552E-03
       1.4615E-03  1.3653E-03  1.2574E-03  1.2328E-03  1.2998E-03  1.3708E-03  1.3388E-03  1.2136E-03  1.0977E-03  1.0474E-03
       1.0345E-03  1.0036E-03  9.5211E-04  9.3321E-04  9.8044E-04  1.0519E-03  1.0478E-03  9.3534E-04  8.0256E-04  7.2986E-04
       7.1365E-04  6.9389E-04  6.2958E-04  5.5721E-04  5.3952E-04



            MULT. ARRAY: HK_Par1_M2
 READING ON UNIT    8 WITH FORMAT: (FREE)              

            1           2           3           4           5           6           7           8           9          10
           11          12          13          14          15          16          17          18          19          20
           21          22          23          24          25          26          27          28          29          30
           31          32          33          34          35
 ........................................................................................................................
   1   1.5509E-03  1.6009E-03  1.7361E-03  1.9155E-03  2.0668E-03  2.1183E-03  2.0477E-03  1.8896E-03  1.6963E-03  1.5081E-03
       1.3543E-03  1.2604E-03  1.2436E-03  1.3004E-03  1.3956E-03  1.4717E-03  1.4952E-03  1.4939E-03  1.5270E-03  1.6260E-03
       1.7687E-03  1.8956E-03  1.9682E-03  2.0061E-03  2.0551E-03  2.1403E-03  2.2648E-03  2.4405E-03  2.6923E-03  3.0044E-03
       3.2530E-03  3.2598E-03  3.0048E-03  2.6899E-03  2.5260E-03
   2   1.6266E-03  1.6841E-03  1.8349E-03  2.0354E-03  2.2063E-03  2.2679E-03  2.1945E-03  2.0238E-03  1.8139E-03  1.6094E-03
       1.4425E-03  1.3413E-03  1.3245E-03  1.3884E-03  1.4948E-03  1.5799E-03  1.6065E-03  1.6054E-03  1.6421E-03  1.7522E-03
       1.9110E-03  2.0523E-03  2.1328E-03  2.1741E-03  2.2276E-03  2.3213E-03  2.4590E-03  2.6538E-03  2.9341E-03  3.2823E-03
       3.5586E-03  3.5609E-03  3.2676E-03  2.9087E-03  2.7197E-03
   3   1.8176E-03  1.8925E-03  2.0774E-03  2.3232E-03  2.5377E-03  2.6248E-03  2.5511E-03  2.3596E-03  2.1189E-03  1.8824E-03
       1.6891E-03  1.5733E-03  1.5581E-03  1.6399E-03  1.7731E-03  1.8799E-03  1.9142E-03  1.9137E-03  1.9593E-03  2.0947E-03
       2.2899E-03  2.4633E-03  2.5609E-03  2.6093E-03  2.6720E-03  2.7835E-03  2.9483E-03  3.1827E-03  3.5214E-03  3.9424E-03
       4.2718E-03  4.2596E-03  3.8826E-03  3.4275E-03  3.1812E-03
   4   2.0108E-03  2.1048E-03  2.3275E-03  2.6249E-03  2.8908E-03  3.0114E-03  2.9435E-03  2.7347E-03  2.4645E-03  2.1960E-03
       1.9759E-03  1.8461E-03  1.8355E-03  1.9411E-03  2.1086E-03  2.2433E-03  2.2879E-03  2.2891E-03  2.3462E-03  2.5138E-03
       2.7553E-03  2.9699E-03  3.0901E-03  3.1486E-03  3.2240E-03  3.3592E-03  3.5596E-03  3.8456E-03  4.2600E-03  4.7752E-03
       5.1736E-03  5.1430E-03  4.6581E-03  4.0789E-03  3.7569E-03
   5   2.0503E-03  2.1507E-03  2.3889E-03  2.7102E-03  3.0035E-03  3.1466E-03  3.0904E-03  2.8825E-03  2.6067E-03  2.3296E-03
       2.1022E-03  1.9702E-03  1.9666E-03  2.0895E-03  2.2799E-03  2.4333E-03  2.4859E-03  2.4894E-03  2.5553E-03  2.7452E-03
       3.0192E-03  3.2643E-03  3.4037E-03  3.4737E-03  3.5629E-03  3.7201E-03  3.9521E-03  4.2825E-03  4.7613E-03  5.3576E-03
       5.8196E-03  5.7840E-03  5.2208E-03  4.5478E-03  4.1683E-03
   6   1.8763E-03  1.9640E-03  2.1828E-03  2.4825E-03  2.7604E-03  2.9014E-03  2.8580E-03  2.6728E-03  2.4229E-03  2.1705E-03
       1.9631E-03  1.8448E-03  1.8476E-03  1.9710E-03  2.1591E-03  2.3110E-03  2.3645E-03  2.3703E-03  2.4377E-03  2.6276E-03
       2.9024E-03  3.1517E-03  3.2987E-03  3.3785E-03  3.4787E-03  3.6488E-03  3.8966E-03  4.2475E-03  4.7544E-03  5.3879E-03
       5.8885E-03  5.8733E-03  5.3043E-03  4.6148E-03  4.2250E-03
   7   1.5904E-03  1.6561E-03  1.8365E-03  2.0887E-03  2.3254E-03  2.4485E-03  2.4162E-03  2.2639E-03  2.0565E-03  1.8461E-03
       1.6733E-03  1.5764E-03  1.5838E-03  1.6958E-03  1.8642E-03  2.0005E-03  2.0497E-03  2.0572E-03  2.1202E-03  2.2942E-03
       2.5470E-03  2.7804E-03  2.9247E-03  3.0103E-03  3.1168E-03  3.2899E-03  3.5385E-03  3.8882E-03  4.3915E-03  5.0240E-03
       5.5385E-03  5.5590E-03  5.0375E-03  4.3896E-03  4.0252E-03
   8   1.3325E-03  1.3797E-03  1.5261E-03  1.7353E-03  1.9344E-03  2.0408E-03  2.0185E-03  1.8963E-03  1.7275E-03  1.5554E-03
       1.4141E-03  1.3364E-03  1.3474E-03  1.4482E-03  1.5977E-03  1.7189E-03  1.7637E-03  1.7722E-03  1.8307E-03  1.9888E-03
       2.2195E-03  2.4363E-03  2.5766E-03  2.6663E-03  2.7769E-03  2.9509E-03  3.1979E-03  3.5437E-03  4.0400E-03  4.6678E-03
       5.1929E-03  5.2477E-03  4.7743E-03  4.1688E-03  3.8296E-03
   9   1.1688E-03  1.2056E-03  1.3323E-03  1.5170E-03  1.6960E-03  1.7959E-03  1.7838E-03  1.6834E-03  1.5408E-03  1.3939E-03
       1.2731E-03  1.2084E-03  1.2237E-03  1.3211E-03  1.4630E-03  1.5780E-03  1.6215E-03  1.6312E-03  1.6886E-03  1.8412E-03
       2.0647E-03  2.2780E-03  2.4208E-03  2.5171E-03  2.6352E-03  2.8167E-03  3.0725E-03  3.4296E-03  3.9420E-03  4.5937E-03
       5.1499E-03  5.2327E-03  4.7728E-03  4.1697E-03  3.8301E-03
  10   1.0939E-03  1.1269E-03  1.2471E-03  1.4251E-03  1.6011E-03  1.7052E-03  1.7042E-03  1.6188E-03  1.4916E-03  1.3581E-03
       1.2478E-03  1.1910E-03  1.2124E-03  1.3151E-03  1.4620E-03  1.5809E-03  1.6264E-03  1.6376E-03  1.6980E-03  1.8572E-03
       2.0911E-03  2.3170E-03  2.4719E-03  2.5799E-03  2.7116E-03  2.9112E-03  3.1912E-03  3.5821E-03  4.1431E-03  4.8599E-03
       5.4797E-03  5.5869E-03  5.0989E-03  4.4475E-03  4.0753E-03
  11   1.0709E-03  1.1036E-03  1.2248E-03  1.4062E-03  1.5895E-03  1.7044E-03  1.7158E-03  1.6421E-03  1.5245E-03  1.3983E-03
       1.2933E-03  1.2416E-03  1.2706E-03  1.3844E-03  1.5443E-03  1.6731E-03  1.7224E-03  1.7347E-03  1.8006E-03  1.9739E-03
       2.2297E-03  2.4790E-03  2.6528E-03  2.7762E-03  2.9262E-03  3.1516E-03  3.4672E-03  3.9081E-03  4.5420E-03  5.3551E-03
       6.0640E-03  6.1962E-03  5.6517E-03  4.9161E-03  4.4878E-03
  12   1.0592E-03  1.0923E-03  1.2155E-03  1.4019E-03  1.5937E-03  1.7199E-03  1.7434E-03  1.6805E-03  1.5716E-03  1.4513E-03
       1.3506E-03  1.3035E-03  1.3397E-03  1.4648E-03  1.6379E-03  1.7760E-03  1.8278E-03  1.8398E-03  1.9100E-03  2.0970E-03
       2.3745E-03  2.6469E-03  2.8390E-03  2.9772E-03  3.1446E-03  3.3950E-03  3.7456E-03  4.2364E-03  4.9440E-03  5.8557E-03
       6.6572E-03  6.8165E-03  6.2150E-03  5.3931E-03  4.9065E-03
  13   1.0368E-03  1.0692E-03  1.1921E-03  1.3796E-03  1.5753E-03  1.7088E-03  1.7418E-03  1.6890E-03  1.5891E-03  1.4758E-03
       1.3801E-03  1.3372E-03  1.3784E-03  1.5102E-03  1.6900E-03  1.8317E-03  1.8823E-03  1.8916E-03  1.9624E-03  2.1558E-03
       2.4452E-03  2.7308E-03  2.9339E-03  3.0812E-03  3.2596E-03  3.5258E-03  3.8991E-03  4.4235E-03  5.1826E-03  6.1659E-03
       7.0390E-03  7.2268E-03  6.5930E-03  5.7144E-03  5.1880E-03
  14   1.0094E-03  1.0407E-03  1.1616E-03  1.3473E-03  1.5433E-03  1.6804E-03  1.7203E-03  1.6759E-03  1.5841E-03  1.4776E-03
       1.3866E-03  1.3469E-03  1.3906E-03  1.5242E-03  1.7046E-03  1.8441E-03  1.8900E-03  1.8944E-03  1.9621E-03  2.1548E-03
       2.4459E-03  2.7345E-03  2.9406E-03  3.0906E-03  3.2722E-03  3.5434E-03  3.9251E-03  4.4637E-03  5.2474E-03  6.2690E-03
       7.1863E-03  7.4005E-03  6.7606E-03  5.8592E-03  5.3152E-03
  15   9.9678E-04  1.0276E-03  1.1481E-03  1.3342E-03  1.5321E-03  1.6732E-03  1.7187E-03  1.6806E-03  1.5944E-03  1.4922E-03
       1.4038E-03  1.3656E-03  1.4103E-03  1.5448E-03  1.7243E-03  1.8600E-03  1.8995E-03  1.8974E-03  1.9603E-03  2.1504E-03
       2.4404E-03  2.7288E-03  2.9344E-03  3.0832E-03  3.2635E-03  3.5337E-03  3.9160E-03  4.4586E-03  5.2530E-03  6.2952E-03
       7.2406E-03  7.4761E-03  6.8390E-03  5.9286E-03  5.3763E-03
  16   1.0099E-03  1.0420E-03  1.1657E-03  1.3571E-03  1.5617E-03  1.7099E-03  1.7614E-03  1.7276E-03  1.6441E-03  1.5428E-03
       1.4541E-03  1.4155E-03  1.4611E-03  1.5978E-03  1.7787E-03  1.9117E-03  1.9442E-03  1.9343E-03  1.9924E-03  2.1816E-03
       2.4735E-03  2.7638E-03  2.9692E-03  3.1156E-03  3.2926E-03  3.5600E-03  3.9407E-03  4.4849E-03  5.2873E-03  6.3465E-03
       7.3146E-03  7.5654E-03  6.9264E-03  6.0042E-03  5.4426E-03
  17   1.0390E-03  1.0734E-03  1.2025E-03  1.4019E-03  1.6158E-03  1.7723E-03  1.8294E-03  1.7984E-03  1.7156E-03  1.6130E-03
       1.5220E-03  1.4817E-03  1.5279E-03  1.6671E-03  1.8499E-03  1.9802E-03  2.0049E-03  1.9866E-03  2.0398E-03  2.2289E-03
       2.5237E-03  2.8164E-03  3.0208E-03  3.1629E-03  3.3343E-03  3.5955E-03  3.9703E-03  4.5105E-03  5.3133E-03  6.3796E-03
       7.3596E-03  7.6190E-03  6.9786E-03  6.0493E-03  5.4820E-03
  18   1.0576E-03  1.0932E-03  1.2251E-03  1.4285E-03  1.6468E-03  1.8069E-03  1.8665E-03  1.8368E-03  1.7542E-03  1.6509E-03
       1.5583E-03  1.5160E-03  1.5606E-03  1.6983E-03  1.8778E-03  2.0018E-03  2.0183E-03  1.9924E-03  2.0399E-03  2.2248E-03
       2.5160E-03  2.8044E-03  3.0029E-03  3.1369E-03  3.2971E-03  3.5441E-03  3.9014E-03  4.4209E-03  5.1996E-03  6.2405E-03
       7.2027E-03  7.4631E-03  6.8415E-03  5.9345E-03  5.3817E-03
  19   1.0414E-03  1.0754E-03  1.2034E-03  1.4008E-03  1.6120E-03  1.7659E-03  1.8221E-03  1.7920E-03  1.7110E-03  1.6099E-03
       1.5186E-03  1.4755E-03  1.5155E-03  1.6444E-03  1.8118E-03  1.9241E-03  1.9329E-03  1.9022E-03  1.9436E-03  2.1174E-03
       2.3930E-03  2.6655E-03  2.8506E-03  2.9717E-03  3.1150E-03  3.3375E-03  3.6619E-03  4.1380E-03  4.8583E-03  5.8276E-03
       6.7301E-03  6.9830E-03  6.4128E-03  5.5741E-03  5.0668E-03
  20   9.9206E-04  1.0221E-03  1.1401E-03  1.3224E-03  1.5161E-03  1.6554E-03  1.7033E-03  1.6718E-03  1.5941E-03  1.4982E-03
       1.4115E-03  1.3691E-03  1.4032E-03  1.5182E-03  1.6675E-03  1.7654E-03  1.7687E-03  1.7373E-03  1.7734E-03  1.9318E-03
       2.1839E-03  2.4328E-03  2.6001E-03  2.7064E-03  2.8297E-03  3.0222E-03  3.3047E-03  3.7232E-03  4.3622E-03  5.2285E-03
       6.0417E-03  6.2794E-03  5.7816E-03  5.0416E-03  4.5998E-03
  21   9.3716E-04  9.6272E-04  1.0698E-03  1.2353E-03  1.4099E-03  1.5329E-03  1.5719E-03  1.5389E-03  1.4648E-03  1.3751E-03
       1.2942E-03  1.2537E-03  1.2827E-03  1.3850E-03  1.5180E-03  1.6039E-03  1.6048E-03  1.5756E-03  1.6089E-03  1.7544E-03
       1.9857E-03  2.2137E-03  2.3656E-03  2.4589E-03  2.5642E-03  2.7288E-03  2.9719E-03  3.3354E-03  3.8959E-03  4.6612E-03
       5.3843E-03  5.6023E-03  5.1702E-03  4.5233E-03  4.1434E-03
  22   9.0777E-04  9.3069E-04  1.0309E-03  1.1856E-03  1.3475E-03  1.4594E-03  1.4920E-03  1.4579E-03  1.3862E-03  1.3008E-03
       1.2241E-03  1.1857E-03  1.2126E-03  1.3083E-03  1.4328E-03  1.5134E-03  1.5146E-03  1.4887E-03  1.5229E-03  1.6640E-03
       1.8869E-03  2.1060E-03  2.2503E-03  2.3352E-03  2.4272E-03  2.5710E-03  2.7848E-03  3.1082E-03  3.6125E-03  4.3055E-03
       4.9617E-03  5.1589E-03  4.7647E-03  4.1768E-03  3.8369E-03
  23   9.2028E-04  9.4326E-04  1.0430E-03  1.1962E-03  1.3553E-03  1.4639E-03  1.4938E-03  1.4583E-03  1.3869E-03  1.3027E-03
       1.2276E-03  1.1907E-03  1.2190E-03  1.3164E-03  1.4429E-03  1.5260E-03  1.5303E-03  1.5081E-03  1.5474E-03  1.6958E-03
       1.9273E-03  2.1537E-03  2.3005E-03  2.3818E-03  2.4648E-03  2.5948E-03  2.7901E-03  3.0900E-03  3.5647E-03  4.2210E-03
       4.8398E-03  5.0159E-03  4.6259E-03  4.0548E-03  3.7279E-03
  24   9.7157E-04  9.9710E-04  1.1020E-03  1.2618E-03  1.4266E-03  1.5382E-03  1.5682E-03  1.5314E-03  1.4583E-03  1.3728E-03
       1.2971E-03  1.2615E-03  1.2948E-03  1.4015E-03  1.5397E-03  1.6329E-03  1.6431E-03  1.6258E-03  1.6750E-03  1.8422E-03
       2.0992E-03  2.3485E-03  2.5066E-03  2.5873E-03  2.6628E-03  2.7820E-03  2.9643E-03  3.2507E-03  3.7135E-03  4.3577E-03
       4.9592E-03  5.1112E-03  4.6972E-03  4.1094E-03  3.7747E-03
  25   1.0416E-03  1.0709E-03  1.1835E-03  1.3531E-03  1.5270E-03  1.6439E-03  1.6750E-03  1.6367E-03  1.5613E-03  1.4738E-03
       1.3972E-03  1.3638E-03  1.4046E-03  1.5252E-03  1.6812E-03  1.7898E-03  1.8093E-03  1.7992E-03  1.8627E-03  2.0569E-03
       2.3504E-03  2.6324E-03  2.8068E-03  2.8867E-03  2.9524E-03  3.0580E-03  3.2246E-03  3.4965E-03  3.9490E-03  4.5848E-03
       5.1702E-03  5.2920E-03  4.8412E-03  4.2240E-03  3.8742E-03
  26   1.1037E-03  1.1361E-03  1.2546E-03  1.4314E-03  1.6111E-03  1.7308E-03  1.7616E-03  1.7217E-03  1.6450E-03  1.5568E-03
       1.4810E-03  1.4510E-03  1.5000E-03  1.6347E-03  1.8088E-03  1.9342E-03  1.9655E-03  1.9657E-03  2.0461E-03  2.2693E-03
       2.6005E-03  2.9154E-03  3.1046E-03  3.1807E-03  3.2316E-03  3.3165E-03  3.4589E-03  3.7057E-03  4.1346E-03  4.7455E-03
       5.2996E-03  5.3853E-03  4.9043E-03  4.2692E-03  3.9121E-03
  27   1.1426E-03  1.1765E-03  1.2968E-03  1.4748E-03  1.6540E-03  1.7714E-03  1.7995E-03  1.7579E-03  1.6812E-03  1.5947E-03
       1.5218E-03  1.4963E-03  1.5525E-03  1.6981E-03  1.8864E-03  2.0267E-03  2.0711E-03  2.0839E-03  2.1812E-03  2.4299E-03
       2.7921E-03  3.1328E-03  3.3315E-03  3.3993E-03  3.4299E-03  3.4869E-03  3.5957E-03  3.8050E-03  4.1926E-03  4.7559E-03
       5.2589E-03  5.3066E-03  4.8137E-03  4.1845E-03  3.8354E-03
  28   1.1667E-03  1.2009E-03  1.3204E-03  1.4958E-03  1.6705E-03  1.7825E-03  1.8065E-03  1.7632E-03  1.6873E-03  1.6036E-03
       1.5348E-03  1.5145E-03  1.5770E-03  1.7311E-03  1.9308E-03  2.0844E-03  2.1424E-03  2.1690E-03  2.2830E-03  2.5539E-03
       2.9417E-03  3.3021E-03  3.5053E-03  3.5610E-03  3.5671E-03  3.5911E-03  3.6601E-03  3.8242E-03  4.1597E-03  4.6618E-03
       5.1031E-03  5.1134E-03  4.6221E-03  4.0149E-03  3.6838E-03
  29   1.1994E-03  1.2345E-03  1.3542E-03  1.5282E-03  1.6997E-03  1.8074E-03  1.8278E-03  1.7827E-03  1.7075E-03  1.6263E-03
       1.5615E-03  1.5466E-03  1.6165E-03  1.7812E-03  1.9946E-03  2.1640E-03  2.2373E-03  2.2790E-03  2.4118E-03  2.7083E-03
       3.1252E-03  3.5075E-03  3.7146E-03  3.7550E-03  3.7323E-03  3.7187E-03  3.7440E-03  3.8601E-03  4.1420E-03  4.5827E-03
       4.9628E-03  4.9357E-03  4.4443E-03  3.8573E-03  3.5426E-03
  30   1.2602E-03  1.2980E-03  1.4217E-03  1.5996E-03  1.7731E-03  1.8805E-03  1.8989E-03  1.8523E-03  1.7767E-03  1.6970E-03
       1.6355E-03  1.6266E-03  1.7073E-03  1.8887E-03  2.1241E-03  2.3161E-03  2.4088E-03  2.4687E-03  2.6261E-03  2.9586E-03
       3.4181E-03  3.8329E-03  4.0470E-03  4.0685E-03  4.0103E-03  3.9521E-03  3.9281E-03  3.9935E-03  4.2239E-03  4.6095E-03
       4.9337E-03  4.8659E-03  4.3616E-03  3.7797E-03  3.4722E-03
  31   1.3501E-03  1.3927E-03  1.5243E-03  1.7113E-03  1.8921E-03  2.0029E-03  2.0213E-03  1.9733E-03  1.8971E-03  1.8182E-03
       1.7599E-03  1.7585E-03  1.8540E-03  2.0597E-03  2.3265E-03  2.5498E-03  2.6677E-03  2.7506E-03  2.9402E-03  3.3219E-03
       3.8403E-03  4.3003E-03  4.5249E-03  4.5223E-03  4.4194E-03  4.3069E-03  4.2251E-03  4.2344E-03  4.4129E-03  4.7473E-03
       5.0188E-03  4.9056E-03  4.3745E-03  3.7829E-03  3.4734E-03
  32   1.4469E-03  1.4951E-03  1.6352E-03  1.8320E-03  2.0209E-03  2.1360E-03  2.1552E-03  2.1066E-03  2.0305E-03  1.9532E-03
       1.8992E-03  1.9069E-03  2.0198E-03  2.2533E-03  2.5562E-03  2.8157E-03  2.9633E-03  3.0735E-03  3.3007E-03  3.7386E-03
       4.3232E-03  4.8333E-03  5.0681E-03  5.0364E-03  4.8814E-03  4.7067E-03  4.5598E-03  4.5073E-03  4.6302E-03  4.9118E-03
       5.1301E-03  4.9704E-03  4.4104E-03  3.8061E-03  3.4927E-03
  33   1.5137E-03  1.5651E-03  1.7093E-03  1.9099E-03  2.1009E-03  2.2163E-03  2.2352E-03  2.1871E-03  2.1130E-03  2.0398E-03
       1.9920E-03  2.0093E-03  2.1373E-03  2.3937E-03  2.7262E-03  3.0173E-03  3.1936E-03  3.3313E-03  3.5935E-03  4.0796E-03
       4.7184E-03  5.2672E-03  5.5064E-03  5.4453E-03  5.2401E-03  5.0054E-03  4.7957E-03  4.6827E-03  4.7485E-03  4.9738E-03
       5.1384E-03  4.9407E-03  4.3673E-03  3.7653E-03  3.4560E-03
  34   1.5212E-03  1.5713E-03  1.7111E-03  1.9045E-03  2.0871E-03  2.1958E-03  2.2120E-03  2.1652E-03  2.0955E-03  2.0288E-03
       1.9887E-03  2.0139E-03  2.1501E-03  2.4158E-03  2.7606E-03  3.0684E-03  3.2647E-03  3.4240E-03  3.7090E-03  4.2197E-03
       4.8814E-03  5.4430E-03  5.6774E-03  5.5938E-03  5.3531E-03  5.0752E-03  4.8191E-03  4.6584E-03  4.6734E-03  4.8435E-03
       4.9591E-03  4.7412E-03  4.1827E-03  3.6086E-03  3.3176E-03
  35   1.4687E-03  1.5134E-03  1.6412E-03  1.8174E-03  1.9821E-03  2.0780E-03  2.0894E-03  2.0447E-03  1.9810E-03  1.9222E-03
       1.8899E-03  1.9200E-03  2.0557E-03  2.3152E-03  2.6524E-03  2.9585E-03  3.1625E-03  3.3331E-03  3.6241E-03  4.1308E-03
       4.7794E-03  5.3249E-03  5.5465E-03  5.4519E-03  5.1974E-03  4.9013E-03  4.6232E-03  4.4351E-03  4.4126E-03  4.5355E-03
       4.6126E-03  4.3939E-03  3.8764E-03  3.3525E-03  3.0916E-03
  36   1.3830E-03  1.4202E-03  1.5323E-03  1.6871E-03  1.8304E-03  1.9115E-03  1.9176E-03  1.8753E-03  1.8181E-03  1.7671E-03
       1.7415E-03  1.7737E-03  1.9029E-03  2.1461E-03  2.4625E-03  2.7539E-03  2.9551E-03  3.1276E-03  3.4113E-03  3.8934E-03
       4.5042E-03  5.0150E-03  5.2197E-03  5.1244E-03  4.8744E-03  4.5810E-03  4.3020E-03  4.1053E-03  4.0599E-03  4.1473E-03
       4.1976E-03  3.9912E-03  3.5267E-03  3.0616E-03  2.8344E-03
  37   1.2965E-03  1.3266E-03  1.4241E-03  1.5591E-03  1.6828E-03  1.7507E-03  1.7527E-03  1.7130E-03  1.6616E-03  1.6172E-03
       1.5967E-03  1.6292E-03  1.7499E-03  1.9745E-03  2.2667E-03  2.5388E-03  2.7319E-03  2.9005E-03  3.1705E-03  3.6204E-03
       4.1853E-03  4.6560E-03  4.8438E-03  4.7535E-03  4.5173E-03  4.2378E-03  3.9696E-03  3.7755E-03  3.7183E-03  3.7815E-03
       3.8146E-03  3.6248E-03  3.2112E-03  2.8000E-03  2.6030E-03
  38   1.2310E-03  1.2558E-03  1.3421E-03  1.4620E-03  1.5709E-03  1.6291E-03  1.6283E-03  1.5910E-03  1.5442E-03  1.5048E-03
       1.4880E-03  1.5201E-03  1.6331E-03  1.8416E-03  2.1125E-03  2.3665E-03  2.5503E-03  2.7128E-03  2.9682E-03  3.3871E-03
       3.9094E-03  4.3431E-03  4.5160E-03  4.4323E-03  4.2120E-03  3.9496E-03  3.6959E-03  3.5092E-03  3.4470E-03  3.4947E-03
       3.5173E-03  3.3431E-03  2.9708E-03  2.6022E-03  2.4283E-03
  39   1.1952E-03  1.2167E-03  1.2957E-03  1.4056E-03  1.5048E-03  1.5569E-03  1.5548E-03  1.5193E-03  1.4758E-03  1.4397E-03
       1.4252E-03  1.4566E-03  1.5638E-03  1.7601E-03  2.0147E-03  2.2540E-03  2.4291E-03  2.5849E-03  2.8267E-03  3.2190E-03
       3.7052E-03  4.1075E-03  4.2680E-03  4.1905E-03  3.9852E-03  3.7392E-03  3.5002E-03  3.3225E-03  3.2595E-03  3.2980E-03
       3.3147E-03  3.1532E-03  2.8116E-03  2.4737E-03  2.3156E-03
  40   1.1898E-03  1.2099E-03  1.2851E-03  1.3897E-03  1.4838E-03  1.5329E-03  1.5304E-03  1.4964E-03  1.4548E-03  1.4206E-03
       1.4071E-03  1.4376E-03  1.5407E-03  1.7284E-03  1.9711E-03  2.1988E-03  2.3657E-03  2.5143E-03  2.7436E-03  3.1133E-03
       3.5691E-03  3.9449E-03  4.0946E-03  4.0224E-03  3.8306E-03  3.6001E-03  3.3753E-03  3.2074E-03  3.1467E-03  3.1810E-03
       3.1953E-03  3.0437E-03  2.7240E-03  2.4069E-03  2.2587E-03



            MULT. ARRAY: HK_Par1_M3
 READING ON UNIT    8 WITH FORMAT: (FREE)              

            1           2           3           4           5           6           7           8           9          10
           11          12          13          14          15          16          17          18          19          20
           21          22          23          24          25          26          27          28          29          30
           31          32          33          34          35
 ........................................................................................................................
   1   3.4875E-04  3.3367E-04  3.3065E-04  3.3810E-04  3.4705E-04  3.4389E-04  3.2552E-04  3.0722E-04  3.0962E-04  3.4429E-04
       4.0681E-04  4.7379E-04  5.2139E-04  5.5622E-04  6.0808E-04  6.9168E-04  7.7864E-04  8.1308E-04  7.8302E-04  7.4522E-04
       7.6017E-04  8.4317E-04  9.5304E-04  1.0163E-03  1.0101E-03  9.9383E-04  1.0348E-03  1.1456E-03  1.2746E-03  1.3528E-03
       1.3803E-03  1.4274E-03  1.5445E-03  1.6928E-03  1.7571E-03
   2   3.2975E-04  3.1491E-04  3.1181E-04  3.1887E-04  3.2734E-04  3.2396E-04  3.0576E-04  2.8766E-04  2.8958E-04  3.2267E-04
       3.8278E-04  4.4733E-04  4.9301E-04  5.2619E-04  5.7602E-04  6.5704E-04  7.4154E-04  7.7447E-04  7.4404E-04  7.0623E-04
       7.2021E-04  8.0094E-04  9.0834E-04  9.7009E-04  9.6338E-04  9.4696E-04  9.8712E-04  1.0965E-03  1.2244E-03  1.3027E-03
       1.3308E-03  1.3789E-03  1.4974E-03  1.6480E-03  1.7148E-03
   3   3.1221E-04  2.9758E-04  2.9429E-04  3.0075E-04  3.0842E-04  3.0445E-04  2.8604E-04  2.6772E-04  2.6857E-04  2.9904E-04
       3.5504E-04  4.1497E-04  4.5653E-04  4.8591E-04  5.3096E-04  6.0547E-04  6.8314E-04  7.1182E-04  6.8075E-04  6.4317E-04
       6.5451E-04  7.2843E-04  8.2740E-04  8.8357E-04  8.7564E-04  8.5898E-04  8.9564E-04  9.9762E-04  1.1180E-03  1.1926E-03
       1.2209E-03  1.2688E-03  1.3845E-03  1.5322E-03  1.6009E-03
   4   3.0540E-04  2.9086E-04  2.8752E-04  2.9375E-04  3.0097E-04  2.9624E-04  2.7692E-04  2.5763E-04  2.5720E-04  2.8563E-04
       3.3866E-04  3.9493E-04  4.3263E-04  4.5806E-04  4.9837E-04  5.6672E-04  6.3776E-04  6.6162E-04  6.2873E-04  5.9029E-04
       5.9836E-04  6.6522E-04  7.5536E-04  8.0514E-04  7.9498E-04  7.7712E-04  8.0935E-04  9.0287E-04  1.0144E-03  1.0844E-03
       1.1119E-03  1.1589E-03  1.2707E-03  1.4143E-03  1.4841E-03
   5   3.1671E-04  3.0207E-04  2.9902E-04  3.0589E-04  3.1347E-04  3.0794E-04  2.8655E-04  2.6504E-04  2.6324E-04  2.9135E-04
       3.4455E-04  4.0030E-04  4.3598E-04  4.5847E-04  4.9583E-04  5.6134E-04  6.2904E-04  6.4881E-04  6.1188E-04  5.7016E-04
       5.7493E-04  6.3746E-04  7.2235E-04  7.6717E-04  7.5340E-04  7.3261E-04  7.6076E-04  8.4844E-04  9.5417E-04  1.0206E-03
       1.0471E-03  1.0932E-03  1.2031E-03  1.3450E-03  1.4158E-03
   6   3.4826E-04  3.3340E-04  3.3116E-04  3.3976E-04  3.4874E-04  3.4231E-04  3.1739E-04  2.9204E-04  2.8865E-04  3.1832E-04
       3.7526E-04  4.3404E-04  4.6961E-04  4.9006E-04  5.2637E-04  5.9272E-04  6.6085E-04  6.7722E-04  6.3351E-04  5.8558E-04
       5.8696E-04  6.4840E-04  7.3235E-04  7.7397E-04  7.5496E-04  7.2924E-04  7.5387E-04  8.3917E-04  9.4313E-04  1.0080E-03
       1.0333E-03  1.0793E-03  1.1903E-03  1.3345E-03  1.4068E-03
   7   3.9472E-04  3.7973E-04  3.7885E-04  3.9014E-04  4.0138E-04  3.9390E-04  3.6411E-04  3.3342E-04  3.2795E-04  3.6028E-04
       4.2318E-04  4.8702E-04  5.2321E-04  5.4158E-04  5.7751E-04  6.4661E-04  7.1716E-04  7.3022E-04  6.7772E-04  6.2159E-04
       6.1941E-04  6.8161E-04  7.6707E-04  8.0634E-04  7.8086E-04  7.4881E-04  7.7010E-04  8.5492E-04  9.5945E-04  1.0240E-03
       1.0483E-03  1.0946E-03  1.2090E-03  1.3581E-03  1.4323E-03
   8   4.4286E-04  4.2796E-04  4.2866E-04  4.4289E-04  4.5649E-04  4.4772E-04  4.1247E-04  3.7576E-04  3.6766E-04  4.0209E-04
       4.7025E-04  5.3814E-04  5.7378E-04  5.8900E-04  6.2347E-04  6.9415E-04  7.6609E-04  7.7553E-04  7.1479E-04  6.5116E-04
       6.4564E-04  7.0823E-04  7.9459E-04  8.3122E-04  7.9958E-04  7.6158E-04  7.7943E-04  8.6318E-04  9.6764E-04  1.0317E-03
       1.0553E-03  1.1024E-03  1.2199E-03  1.3733E-03  1.4494E-03
   9   4.7816E-04  4.6343E-04  4.6534E-04  4.8170E-04  4.9680E-04  4.8644E-04  4.4624E-04  4.0411E-04  3.9301E-04  4.2753E-04
       4.9741E-04  5.6562E-04  5.9832E-04  6.0903E-04  6.4003E-04  7.0882E-04  7.7892E-04  7.8477E-04  7.1927E-04  6.5180E-04
       6.4398E-04  7.0506E-04  7.8950E-04  8.2286E-04  7.8716E-04  7.4553E-04  7.6011E-04  8.4055E-04  9.4222E-04  1.0048E-03
       1.0284E-03  1.0761E-03  1.1945E-03  1.3493E-03  1.4266E-03
  10   4.9658E-04  4.8194E-04  4.8443E-04  5.0175E-04  5.1717E-04  5.0505E-04  4.6099E-04  4.1473E-04  4.0064E-04  4.3321E-04
       5.0109E-04  5.6596E-04  5.9385E-04  5.9948E-04  6.2569E-04  6.8966E-04  7.5527E-04  7.5825E-04  6.9214E-04  6.2496E-04
       6.1622E-04  6.7429E-04  7.5450E-04  7.8442E-04  7.4716E-04  7.0448E-04  7.1625E-04  7.9166E-04  8.8823E-04  9.4855E-04
       9.7259E-04  1.0207E-03  1.1378E-03  1.2910E-03  1.3689E-03
  11   5.0853E-04  4.9395E-04  4.9678E-04  5.1460E-04  5.2992E-04  5.1603E-04  4.6865E-04  4.1888E-04  4.0195E-04  4.3198E-04
       4.9670E-04  5.5720E-04  5.8010E-04  5.8102E-04  6.0264E-04  6.6161E-04  7.2273E-04  7.2389E-04  6.5904E-04  5.9380E-04
       5.8508E-04  6.4051E-04  7.1677E-04  7.4387E-04  7.0597E-04  6.6303E-04  6.7248E-04  7.4307E-04  8.3466E-04  8.9285E-04
       9.1750E-04  9.6608E-04  1.0818E-03  1.2329E-03  1.3112E-03
  12   5.3062E-04  5.1622E-04  5.1984E-04  5.3893E-04  5.5485E-04  5.3920E-04  4.8765E-04  4.3340E-04  4.1341E-04  4.4183E-04
       5.0522E-04  5.6319E-04  5.8210E-04  5.7888E-04  5.9712E-04  6.5344E-04  7.1262E-04  7.1283E-04  6.4802E-04  5.8326E-04
       5.7475E-04  6.2978E-04  7.0496E-04  7.3034E-04  6.9054E-04  6.4580E-04  6.5309E-04  7.2089E-04  8.1002E-04  8.6731E-04
       8.9258E-04  9.4221E-04  1.0588E-03  1.2109E-03  1.2900E-03
  13   5.7567E-04  5.6182E-04  5.6731E-04  5.8943E-04  6.0751E-04  5.8994E-04  5.3203E-04  4.7077E-04  4.4686E-04  4.7530E-04
       5.4083E-04  5.9946E-04  6.1552E-04  6.0821E-04  6.2435E-04  6.8145E-04  7.4242E-04  7.4220E-04  6.7427E-04  6.0667E-04
       5.9808E-04  6.5591E-04  7.3412E-04  7.5878E-04  7.1425E-04  6.6456E-04  6.6928E-04  7.3695E-04  8.2711E-04  8.8515E-04
       9.1102E-04  9.6269E-04  1.0838E-03  1.2416E-03  1.3230E-03
  14   6.4739E-04  6.3471E-04  6.4351E-04  6.7085E-04  6.9296E-04  6.7318E-04  6.0605E-04  5.3448E-04  5.0528E-04  5.3519E-04
       6.0623E-04  6.6834E-04  6.8203E-04  6.6993E-04  6.8467E-04  7.4556E-04  8.1170E-04  8.1132E-04  7.3691E-04  6.6301E-04
       6.5394E-04  7.1751E-04  8.0245E-04  8.2682E-04  7.7413E-04  7.1581E-04  7.1697E-04  7.8635E-04  8.8016E-04  9.4008E-04
       9.6633E-04  1.0208E-03  1.1498E-03  1.3175E-03  1.4019E-03
  15   7.3761E-04  7.2683E-04  7.4020E-04  7.7451E-04  8.0203E-04  7.7969E-04  7.0099E-04  6.1634E-04  5.8041E-04  6.1216E-04
       6.9015E-04  7.5667E-04  7.6738E-04  7.4930E-04  7.6240E-04  8.2827E-04  9.0110E-04  9.0064E-04  8.1807E-04  7.3613E-04
       7.2633E-04  7.9700E-04  8.9010E-04  9.1363E-04  8.5023E-04  7.8068E-04  7.7693E-04  8.4783E-04  9.4543E-04  1.0070E-03
       1.0331E-03  1.0903E-03  1.2279E-03  1.4066E-03  1.4942E-03
  16   8.2699E-04  8.1849E-04  8.3666E-04  8.7802E-04  9.1083E-04  8.8553E-04  7.9466E-04  6.9628E-04  6.5278E-04  6.8508E-04
       7.6815E-04  8.3697E-04  8.4313E-04  8.1809E-04  8.2845E-04  8.9765E-04  9.7569E-04  9.7514E-04  8.8589E-04  7.9740E-04
       7.8705E-04  8.6345E-04  9.6257E-04  9.8387E-04  9.0976E-04  8.2924E-04  8.1964E-04  8.8956E-04  9.8795E-04  1.0492E-03
       1.0745E-03  1.1334E-03  1.2769E-03  1.4631E-03  1.5530E-03
  17   8.9353E-04  8.8689E-04  9.0860E-04  9.5492E-04  9.9096E-04  9.6231E-04  8.6104E-04  7.5108E-04  7.0034E-04  7.3060E-04
       8.1384E-04  8.8045E-04  8.8039E-04  8.4846E-04  8.5479E-04  9.2342E-04  1.0025E-03  1.0019E-03  9.1057E-04  8.2005E-04
       8.0977E-04  8.8813E-04  9.8815E-04  1.0057E-03  9.2407E-04  8.3621E-04  8.2096E-04  8.8620E-04  9.8045E-04  1.0387E-03
       1.0628E-03  1.1215E-03  1.2653E-03  1.4523E-03  1.5428E-03
  18   9.2632E-04  9.2054E-04  9.4362E-04  9.9160E-04  1.0279E-03  9.9571E-04  8.8737E-04  7.6990E-04  7.1334E-04  7.3899E-04
       8.1706E-04  8.7697E-04  8.7001E-04  8.3252E-04  8.3425E-04  8.9837E-04  9.7417E-04  9.7366E-04  8.8555E-04  7.9829E-04
       7.8885E-04  8.6502E-04  9.6058E-04  9.7358E-04  8.8913E-04  7.9901E-04  7.7934E-04  8.3692E-04  9.2269E-04  9.7582E-04
       9.9829E-04  1.0550E-03  1.1935E-03  1.3740E-03  1.4635E-03
  19   9.3259E-04  9.2678E-04  9.4949E-04  9.9656E-04  1.0309E-03  9.9537E-04  8.8303E-04  7.6171E-04  7.0100E-04  7.2084E-04
       7.9072E-04  8.4182E-04  8.2854E-04  7.8736E-04  7.8492E-04  8.4273E-04  9.1299E-04  9.1300E-04  8.3149E-04  7.5070E-04
       7.4266E-04  8.1437E-04  9.0267E-04  9.1120E-04  8.2729E-04  7.3845E-04  7.1566E-04  7.6456E-04  8.4003E-04  8.8703E-04
       9.0776E-04  9.6134E-04  1.0911E-03  1.2609E-03  1.3479E-03
  20   9.3168E-04  9.2559E-04  9.4748E-04  9.9301E-04  1.0249E-03  9.8645E-04  8.7135E-04  7.4756E-04  6.8361E-04  6.9796E-04
       7.5983E-04  8.0271E-04  7.8428E-04  7.4068E-04  7.3510E-04  7.8741E-04  8.5280E-04  8.5389E-04  7.7933E-04  7.0521E-04
       6.9879E-04  7.6643E-04  8.4800E-04  8.5260E-04  7.6960E-04  6.8231E-04  6.5687E-04  6.9786E-04  7.6377E-04  8.0496E-04
       8.2383E-04  8.7401E-04  9.9498E-04  1.1540E-03  1.2380E-03
  21   9.4339E-04  9.3747E-04  9.5938E-04  1.0046E-03  1.0352E-03  9.9402E-04  8.7512E-04  7.4757E-04  6.8000E-04  6.9003E-04
       7.4622E-04  7.8307E-04  7.6042E-04  7.1459E-04  7.0688E-04  7.5620E-04  8.1953E-04  8.2242E-04  7.5297E-04  6.8349E-04
       6.7873E-04  7.4474E-04  8.2252E-04  8.2364E-04  7.3906E-04  6.5065E-04  6.2191E-04  6.5651E-04  7.1504E-04  7.5144E-04
       7.6836E-04  8.1577E-04  9.3041E-04  1.0817E-03  1.1635E-03
  22   9.7933E-04  9.7444E-04  9.9796E-04  1.0452E-03  1.0765E-03  1.0325E-03  9.0727E-04  7.7287E-04  7.0033E-04  7.0730E-04
       7.6084E-04  7.9421E-04  7.6768E-04  7.1896E-04  7.0989E-04  7.5937E-04  8.2444E-04  8.3013E-04  7.6323E-04  6.9560E-04
       6.9266E-04  7.6051E-04  8.3844E-04  8.3610E-04  7.4570E-04  6.5168E-04  6.1804E-04  6.4765E-04  7.0116E-04  7.3381E-04
       7.4866E-04  7.9429E-04  9.0612E-04  1.0542E-03  1.1350E-03
  23   1.0383E-03  1.0354E-03  1.0621E-03  1.1135E-03  1.1475E-03  1.1006E-03  9.6659E-04  8.2230E-04  7.4336E-04  7.4821E-04
       8.0164E-04  8.3356E-04  8.0323E-04  7.5085E-04  7.4108E-04  7.9367E-04  8.6419E-04  8.7402E-04  8.0784E-04  7.3991E-04
       7.3927E-04  8.1246E-04  8.9419E-04  8.8806E-04  7.8727E-04  6.8286E-04  6.4227E-04  6.6759E-04  7.1771E-04  7.4722E-04
       7.5974E-04  8.0439E-04  9.1649E-04  1.0654E-03  1.1464E-03
  24   1.1048E-03  1.1042E-03  1.1348E-03  1.1913E-03  1.2288E-03  1.1792E-03  1.0359E-03  8.8091E-04  7.9524E-04  7.9846E-04
       8.5288E-04  8.8434E-04  8.5059E-04  7.9466E-04  7.8493E-04  8.4251E-04  9.2090E-04  9.3642E-04  8.7097E-04  8.0240E-04
       8.0495E-04  8.8584E-04  9.7359E-04  9.6329E-04  8.4912E-04  7.3121E-04  6.8208E-04  7.0305E-04  7.5025E-04  7.7662E-04
       7.8650E-04  8.3044E-04  9.4418E-04  1.0957E-03  1.1774E-03
  25   1.1535E-03  1.1547E-03  1.1880E-03  1.2481E-03  1.2879E-03  1.2365E-03  1.0866E-03  9.2393E-04  8.3323E-04  8.3486E-04
       8.8941E-04  9.2017E-04  8.8409E-04  8.2622E-04  8.1744E-04  8.8000E-04  9.6624E-04  9.8859E-04  9.2605E-04  8.5886E-04
       8.6563E-04  9.5441E-04  1.0480E-03  1.0337E-03  9.0674E-04  7.7579E-04  7.1815E-04  7.3433E-04  7.7802E-04  8.0095E-04
       8.0809E-04  8.5101E-04  9.6555E-04  1.1185E-03  1.2006E-03
  26   1.1649E-03  1.1665E-03  1.2001E-03  1.2603E-03  1.2998E-03  1.2475E-03  1.0962E-03  9.3190E-04  8.3949E-04  8.3934E-04
       8.9188E-04  9.2087E-04  8.8421E-04  8.2708E-04  8.2006E-04  8.8584E-04  9.7749E-04  1.0068E-03  9.5048E-04  8.8803E-04
       8.9981E-04  9.9451E-04  1.0918E-03  1.0744E-03  9.3877E-04  7.9890E-04  7.3462E-04  7.4579E-04  7.8508E-04  8.0438E-04
       8.0910E-04  8.5042E-04  9.6346E-04  1.1149E-03  1.1963E-03
  27   1.1423E-03  1.1428E-03  1.1743E-03  1.2315E-03  1.2684E-03  1.2162E-03  1.0683E-03  9.0785E-04  8.1691E-04  8.1500E-04
       8.6381E-04  8.9029E-04  8.5466E-04  8.0056E-04  7.9586E-04  8.6292E-04  9.5720E-04  9.9291E-04  9.4515E-04  8.9006E-04
       9.0711E-04  1.0054E-03  1.1040E-03  1.0848E-03  9.4522E-04  8.0095E-04  7.3233E-04  7.3876E-04  7.7325E-04  7.8905E-04
       7.9184E-04  8.3120E-04  9.4080E-04  1.0881E-03  1.1680E-03
  28   1.1107E-03  1.1098E-03  1.1387E-03  1.1922E-03  1.2261E-03  1.1747E-03  1.0317E-03  8.7679E-04  7.8843E-04  7.8524E-04
       8.3051E-04  8.5490E-04  8.2107E-04  7.7072E-04  7.6865E-04  8.3687E-04  9.3346E-04  9.7545E-04  9.3661E-04  8.8936E-04
       9.1193E-04  1.0139E-03  1.1140E-03  1.0935E-03  9.5077E-04  8.0286E-04  7.3038E-04  7.3245E-04  7.6248E-04  7.7508E-04
       7.7611E-04  8.1359E-04  9.1982E-04  1.0630E-03  1.1413E-03
  29   1.0992E-03  1.0978E-03  1.1255E-03  1.1772E-03  1.2099E-03  1.1592E-03  1.0191E-03  8.6714E-04  7.8015E-04  7.7648E-04
       8.2033E-04  8.4423E-04  8.1208E-04  7.6468E-04  7.6572E-04  8.3761E-04  9.3982E-04  9.8969E-04  9.5887E-04  9.1833E-04
       9.4752E-04  1.0568E-03  1.1618E-03  1.1396E-03  9.8917E-04  8.3274E-04  7.5393E-04  7.5154E-04  7.7789E-04  7.8733E-04
       7.8614E-04  8.2227E-04  9.2755E-04  1.0698E-03  1.1475E-03
  30   1.1229E-03  1.1222E-03  1.1512E-03  1.2044E-03  1.2384E-03  1.1883E-03  1.0473E-03  8.9376E-04  8.0577E-04  8.0262E-04
       8.4815E-04  8.7386E-04  8.4304E-04  7.9735E-04  8.0249E-04  8.8259E-04  9.9664E-04  1.0580E-03  1.0347E-03  9.9976E-04
       1.0381E-03  1.1614E-03  1.2776E-03  1.2525E-03  1.0857E-03  9.1152E-04  8.2135E-04  8.1366E-04  8.3690E-04  8.4276E-04
       8.3823E-04  8.7366E-04  9.8169E-04  1.1279E-03  1.2064E-03
  31   1.1739E-03  1.1752E-03  1.2073E-03  1.2647E-03  1.3025E-03  1.2531E-03  1.1088E-03  9.5035E-04  8.5983E-04  8.5831E-04
       9.0840E-04  9.3822E-04  9.0899E-04  8.6463E-04  8.7550E-04  9.6879E-04  1.1015E-03  1.1794E-03  1.1647E-03  1.1357E-03
       1.1870E-03  1.3323E-03  1.4669E-03  1.4380E-03  1.2456E-03  1.0435E-03  9.3625E-04  9.2181E-04  9.4203E-04  9.4340E-04
       9.3406E-04  9.6911E-04  1.0833E-03  1.2378E-03  1.3181E-03
  32   1.2240E-03  1.2274E-03  1.2627E-03  1.3245E-03  1.3666E-03  1.3188E-03  1.1722E-03  1.0099E-03  9.1779E-04  9.1889E-04
       9.7483E-04  1.0102E-03  9.8388E-04  9.4209E-04  9.6051E-04  1.0699E-03  1.2254E-03  1.3236E-03  1.3205E-03  1.3002E-03
       1.3684E-03  1.5416E-03  1.6999E-03  1.6677E-03  1.4453E-03  1.2098E-03  1.0819E-03  1.0596E-03  1.0765E-03  1.0726E-03
       1.0574E-03  1.0919E-03  1.2137E-03  1.3786E-03  1.4607E-03
  33   1.2412E-03  1.2454E-03  1.2818E-03  1.3452E-03  1.3895E-03  1.3445E-03  1.2004E-03  1.0397E-03  9.4926E-04  9.5346E-04
       1.0142E-03  1.0550E-03  1.0334E-03  9.9669E-04  1.0236E-03  1.1481E-03  1.3247E-03  1.4440E-03  1.4558E-03  1.4479E-03
       1.5353E-03  1.7370E-03  1.9199E-03  1.8875E-03  1.6392E-03  1.3734E-03  1.2265E-03  1.1968E-03  1.2104E-03  1.2013E-03
       1.1803E-03  1.2143E-03  1.3428E-03  1.5168E-03  1.5997E-03
  34   1.2174E-03  1.2205E-03  1.2553E-03  1.3166E-03  1.3602E-03  1.3188E-03  1.1824E-03  1.0294E-03  9.4409E-04  9.5129E-04
       1.0146E-03  1.0594E-03  1.0441E-03  1.0145E-03  1.0497E-03  1.1854E-03  1.3777E-03  1.5153E-03  1.5440E-03  1.5514E-03
       1.6580E-03  1.8848E-03  2.0898E-03  2.0613E-03  1.7969E-03  1.5098E-03  1.3488E-03  1.3135E-03  1.3246E-03  1.3115E-03
       1.2860E-03  1.3193E-03  1.4529E-03  1.6333E-03  1.7160E-03
  35   1.1776E-03  1.1790E-03  1.2111E-03  1.2688E-03  1.3107E-03  1.2731E-03  1.1461E-03  1.0031E-03  9.2430E-04  9.3438E-04
       9.9922E-04  1.0475E-03  1.0387E-03  1.0170E-03  1.0599E-03  1.2048E-03  1.4097E-03  1.5636E-03  1.6096E-03  1.6336E-03
       1.7591E-03  2.0092E-03  2.2354E-03  2.2138E-03  1.9393E-03  1.6363E-03  1.4644E-03  1.4248E-03  1.4343E-03  1.4179E-03
       1.3887E-03  1.4216E-03  1.5595E-03  1.7450E-03  1.8270E-03
  36   1.1593E-03  1.1601E-03  1.1908E-03  1.2469E-03  1.2886E-03  1.2547E-03  1.1349E-03  9.9921E-04  9.2563E-04  9.3914E-04
       1.0073E-03  1.0603E-03  1.0580E-03  1.0436E-03  1.0952E-03  1.2521E-03  1.4735E-03  1.6466E-03  1.7107E-03  1.7520E-03
       1.8993E-03  2.1778E-03  2.4300E-03  2.4160E-03  2.1275E-03  1.8035E-03  1.6176E-03  1.5732E-03  1.5809E-03  1.5607E-03
       1.5265E-03  1.5587E-03  1.7024E-03  1.8948E-03  1.9754E-03
  37   1.1863E-03  1.1881E-03  1.2204E-03  1.2788E-03  1.3234E-03  1.2930E-03  1.1763E-03  1.0428E-03  9.7178E-04  9.8996E-04
       1.0650E-03  1.1257E-03  1.1301E-03  1.1225E-03  1.1853E-03  1.3612E-03  1.6087E-03  1.8081E-03  1.8927E-03  1.9528E-03
       2.1278E-03  2.4457E-03  2.7335E-03  2.7263E-03  2.4123E-03  2.0541E-03  1.8462E-03  1.7941E-03  1.7992E-03  1.7726E-03
       1.7303E-03  1.7608E-03  1.9124E-03  2.1148E-03  2.1929E-03
  38   1.2540E-03  1.2586E-03  1.2951E-03  1.3589E-03  1.4093E-03  1.3825E-03  1.2656E-03  1.1301E-03  1.0596E-03  1.0835E-03
       1.1688E-03  1.2396E-03  1.2509E-03  1.2499E-03  1.3258E-03  1.5266E-03  1.8079E-03  2.0392E-03  2.1460E-03  2.2257E-03
       2.4323E-03  2.7970E-03  3.1265E-03  3.1244E-03  2.7761E-03  2.3738E-03  2.1373E-03  2.0748E-03  2.0756E-03  2.0402E-03
       1.9866E-03  2.0137E-03  2.1737E-03  2.3866E-03  2.4602E-03
  39   1.3286E-03  1.3363E-03  1.3771E-03  1.4466E-03  1.5026E-03  1.4790E-03  1.3616E-03  1.2237E-03  1.1532E-03  1.1824E-03
       1.2769E-03  1.3567E-03  1.3738E-03  1.3781E-03  1.4653E-03  1.6873E-03  1.9968E-03  2.2538E-03  2.3780E-03  2.4730E-03
       2.7041E-03  3.1046E-03  3.4649E-03  3.4661E-03  3.0912E-03  2.6543E-03  2.3947E-03  2.3230E-03  2.3191E-03  2.2755E-03
       2.2117E-03  2.2344E-03  2.3986E-03  2.6167E-03  2.6842E-03
  40   1.3639E-03  1.3727E-03  1.4147E-03  1.4852E-03  1.5425E-03  1.5208E-03  1.4054E-03  1.2689E-03  1.1996E-03  1.2305E-03
       1.3271E-03  1.4092E-03  1.4283E-03  1.4346E-03  1.5246E-03  1.7501E-03  2.0629E-03  2.3229E-03  2.4500E-03  2.5479E-03
       2.7810E-03  3.1813E-03  3.5399E-03  3.5421E-03  3.1708E-03  2.7354E-03  2.4749E-03  2.4016E-03  2.3959E-03  2.3500E-03
       2.2840E-03  2.3040E-03  2.4646E-03  2.6773E-03  2.7399E-03



             ZONE ARRAY: HK_Par1_Z1
 READING ON UNIT   13 WITH FORMAT: (FREE)              



             ZONE ARRAY: HK_Par1_Z2
 READING ON UNIT   13 WITH FORMAT: (FREE)              



             ZONE ARRAY: HK_Par1_Z3
 READING ON UNIT   13 WITH FORMAT: (FREE)              

 LPF -- LAYER-PROPERTY FLOW PACKAGE, VERSION 7, 5/2/2005
         INPUT READ FROM UNIT   11
 # LPF: Layer Property Flow package file
 CELL-BY-CELL FLOWS WILL BE SAVED ON UNIT   50
 HEAD AT CELLS THAT CONVERT TO DRY=   999.00    
     1 Named Parameters     

   LAYER FLAGS:
 LAYER       LAYTYP        LAYAVG         CHANI        LAYVKA        LAYWET
 ---------------------------------------------------------------------------
    1             0             0     1.000E+00             1             0
    2             0             0     1.000E+00             1             0
    3             0             0     1.000E+00             1             0

   INTERPRETATION OF LAYER FLAGS:
                        INTERBLOCK     HORIZONTAL    DATA IN
         LAYER TYPE   TRANSMISSIVITY   ANISOTROPY   ARRAY VKA   WETTABILITY
 LAYER      (LAYTYP)      (LAYAVG)       (CHANI)      (LAYVKA)      (LAYWET)
 ---------------------------------------------------------------------------
    1      CONFINED      HARMONIC     1.000E+00    ANISOTROPY  NON-WETTABLE
    2      CONFINED      HARMONIC     1.000E+00    ANISOTROPY  NON-WETTABLE
    3      CONFINED      HARMONIC     1.000E+00    ANISOTROPY  NON-WETTABLE

 WETTING CAPABILITY IS NOT ACTIVE IN ANY LAYER

 PARAMETERS DEFINED IN THE LPF PACKAGE

 PARAMETER NAME:HK_Par1      TYPE:HK     CLUSTERS:   3
 Parameter value from package file is:    1.0000    
                LAYER:   1    MULTIPLIER ARRAY: HK_Par1_M1    ZONE ARRAY: HK_Par1_Z1
                ZONE VALUES:    1
                LAYER:   2    MULTIPLIER ARRAY: HK_Par1_M2    ZONE ARRAY: HK_Par1_Z2
                ZONE VALUES:    1
                LAYER:   3    MULTIPLIER ARRAY: HK_Par1_M3    ZONE ARRAY: HK_Par1_Z3
                ZONE VALUES:    1

    HYD. COND. ALONG ROWS FOR LAYER   1 WILL BE DEFINED BY PARAMETERS
 (PRINT FLAG=  -1)

    HYD. COND. ALONG ROWS is defined by the following parameters:
 HK_Par1   


              HYD. COND. ALONG ROWS FOR LAYER   1

  HORIZ. TO VERTICAL ANI. =   1.00000     FOR LAYER   1

    HYD. COND. ALONG ROWS FOR LAYER   2 WILL BE DEFINED BY PARAMETERS
 (PRINT FLAG=  -1)

    HYD. COND. ALONG ROWS is defined by the following parameters:
 HK_Par1   


              HYD. COND. ALONG ROWS FOR LAYER   2

  HORIZ. TO VERTICAL ANI. =   1.00000     FOR LAYER   2

    HYD. COND. ALONG ROWS FOR LAYER   3 WILL BE DEFINED BY PARAMETERS
 (PRINT FLAG=  -1)

    HYD. COND. ALONG ROWS is defined by the following parameters:
 HK_Par1   


              HYD. COND. ALONG ROWS FOR LAYER   3

  HORIZ. TO VERTICAL ANI. =   1.00000     FOR LAYER   3

 WEL -- WELL PACKAGE, VERSION 7, 5/2/2005 INPUT READ FROM UNIT   12
 # WEL: Well package file
 No named parameters
 MAXIMUM OF      3 ACTIVE WELLS AT ONE TIME
 CELL-BY-CELL FLOWS WILL BE SAVED ON UNIT   54


     0 Well parameters

 CHD -- TIME-VARIANT SPECIFIED-HEAD OPTION, VERSION 7, 5/2/2005
 INPUT READ FROM UNIT   40
 # CHD: Time-Variant Specified-Head package file created
 No named parameters
 MAXIMUM OF    240 TIME-VARIANT SPECIFIED-HEAD CELLS AT ONE TIME
 AUXILIARY CHD VARIABLE: IFACE           


     0 TIME-VARIANT SPECIFIED-HEAD PARAMETERS

 PCG -- CONJUGATE-GRADIENT SOLUTION PACKAGE, VERSION 7, 5/2/2005
 MAXIMUM OF   1000 CALLS OF SOLUTION ROUTINE
 MAXIMUM OF     40 INTERNAL ITERATIONS PER CALL TO SOLUTION ROUTINE
 MATRIX PRECONDITIONING TYPE :    1



                                    SOLUTION BY THE CONJUGATE-GRADIENT METHOD
                                   -------------------------------------------
                    MAXIMUM NUMBER OF CALLS TO PCG ROUTINE =     1000
                        MAXIMUM ITERATIONS PER CALL TO PCG =       40
                               MATRIX PRECONDITIONING TYPE =        1
        RELAXATION FACTOR (ONLY USED WITH PRECOND. TYPE 1) =    0.10000E+01
 PARAMETER OF POLYNOMIAL PRECOND. = 2 (2) OR IS CALCULATED :        2
                         HEAD CHANGE CRITERION FOR CLOSURE =    0.10000E-05
                     RESIDUAL CHANGE CRITERION FOR CLOSURE =    0.10000E-05
            PCG HEAD AND RESIDUAL CHANGE PRINTOUT INTERVAL =        5
     PRINTING FROM SOLVER IS LIMITED(1) OR SUPPRESSED (>1) =        0
                                         DAMPING PARAMETER =    0.10000E+01

 OBS2BAS7 -- HEAD OBSERVATIONS, VERSION 2.0, 2/28/2006
 INPUT READ FROM UNIT  18
 # HOB: Head Observation package file

 NUMBER OF HEADS....................................:  243
   NUMBER OF MULTILAYER HEADS.......................:    0
   MAXIMUM NUMBER OF LAYERS FOR MULTILAYER HEADS....:    2
 HEAD OBSERVATIONS WILL BE SAVED ON UNIT............:   14
 SIMULATED EQUIVALENT HEAD AT DRY CELLS WILL BE:    999.000    

 OBSERVED HEAD DATA -- TIME OFFSETS ARE MULTIPLIED BY:   1.0000    

                    REFER.
       OBSERVATION  STRESS    TIME
  OBS#    NAME      PERIOD   OFFSET    OBSERVATION
     1 obs1_01          1    1.000       0.000    
     2 obs1_02          1    1.000       0.000    
     3 obs1_03          1    1.000       0.000    
     4 obs1_04          1    1.000       0.000    
     5 obs1_05          1    1.000       0.000    
     6 obs1_06          1    1.000       0.000    
     7 obs1_07          1    1.000       0.000    
     8 obs1_08          1    1.000       0.000    
     9 obs1_09          1    1.000       0.000    
    10 obs1_10          1    1.000       0.000    
    11 obs1_11          1    1.000       0.000    
    12 obs1_12          1    1.000       0.000    
    13 obs1_13          1    1.000       0.000    
    14 obs1_14          1    1.000       0.000    
    15 obs1_15          1    1.000       0.000    
    16 obs1_16          1    1.000       0.000    
    17 obs1_17          1    1.000       0.000    
    18 obs1_18          1    1.000       0.000    
    19 obs1_19          1    1.000       0.000    
    20 obs1_20          1    1.000       0.000    
    21 obs1_21          1    1.000       0.000    
    22 obs1_22          1    1.000       0.000    
    23 obs1_23          1    1.000       0.000    
    24 obs1_24          1    1.000       0.000    
    25 obs1_25          1    1.000       0.000    
    26 obs1_26          1    1.000       0.000    
    27 obs1_27          1    1.000       0.000    
    28 obs1_28          1    1.000       0.000    
    29 obs1_29          1    1.000       0.000    
    30 obs1_30          1    1.000       0.000    
    31 obs1_31          1    1.000       0.000    
    32 obs1_32          1    1.000       0.000    
    33 obs1_33          1    1.000       0.000    
    34 obs1_34          1    1.000       0.000    
    35 obs1_35          1    1.000       0.000    
    36 obs1_36          1    1.000       0.000    
    37 obs1_37          1    1.000       0.000    
    38 obs1_38          1    1.000       0.000    
    39 obs1_39          1    1.000       0.000    
    40 obs1_40          1    1.000       0.000    
    41 obs1_41          1    1.000       0.000    
    42 obs1_42          1    1.000       0.000    
    43 obs1_43          1    1.000       0.000    
    44 obs1_44          1    1.000       0.000    
    45 obs1_45          1    1.000       0.000    
    46 obs1_46          1    1.000       0.000    
    47 obs1_47          1    1.000       0.000    
    48 obs1_48          1    1.000       0.000    
    49 obs1_49          1    1.000       0.000    
    50 obs1_50          1    1.000       0.000    
    51 obs1_51          1    1.000       0.000    
    52 obs1_52          1    1.000       0.000    
    53 obs1_53          1    1.000       0.000    
    54 obs1_54          1    1.000       0.000    
    55 obs1_55          1    1.000       0.000    
    56 obs1_56          1    1.000       0.000    
    57 obs1_57          1    1.000       0.000    
    58 obs1_58          1    1.000       0.000    
    59 obs1_59          1    1.000       0.000    
    60 obs1_60          1    1.000       0.000    
    61 obs1_61          1    1.000       0.000    
    62 obs1_62          1    1.000       0.000    
    63 obs1_63          1    1.000       0.000    
    64 obs1_64          1    1.000       0.000    
    65 obs1_65          1    1.000       0.000    
    66 obs1_66          1    1.000       0.000    
    67 obs1_67          1    1.000       0.000    
    68 obs1_68          1    1.000       0.000    
    69 obs1_69          1    1.000       0.000    
    70 obs1_70          1    1.000       0.000    
    71 obs1_71          1    1.000       0.000    
    72 obs1_72          1    1.000       0.000    
    73 obs1_73          1    1.000       0.000    
    74 obs1_74          1    1.000       0.000    
    75 obs1_75          1    1.000       0.000    
    76 obs1_76          1    1.000       0.000    
    77 obs1_77          1    1.000       0.000    
    78 obs1_78          1    1.000       0.000    
    79 obs1_79          1    1.000       0.000    
    80 obs1_80          1    1.000       0.000    
    81 obs1_81          1    1.000       0.000    
    82 obs2_01          1    1.000       0.000    
    83 obs2_02          1    1.000       0.000    
    84 obs2_03          1    1.000       0.000    
    85 obs2_04          1    1.000       0.000    
    86 obs2_05          1    1.000       0.000    
    87 obs2_06          1    1.000       0.000    
    88 obs2_07          1    1.000       0.000    
    89 obs2_08          1    1.000       0.000    
    90 obs2_09          1    1.000       0.000    
    91 obs2_10          1    1.000       0.000    
    92 obs2_11          1    1.000       0.000    
    93 obs2_12          1    1.000       0.000    
    94 obs2_13          1    1.000       0.000    
    95 obs2_14          1    1.000       0.000    
    96 obs2_15          1    1.000       0.000    
    97 obs2_16          1    1.000       0.000    
    98 obs2_17          1    1.000       0.000    
    99 obs2_18          1    1.000       0.000    
   100 obs2_19          1    1.000       0.000    
   101 obs2_20          1    1.000       0.000    
   102 obs2_21          1    1.000       0.000    
   103 obs2_22          1    1.000       0.000    
   104 obs2_23          1    1.000       0.000    
   105 obs2_24          1    1.000       0.000    
   106 obs2_25          1    1.000       0.000    
   107 obs2_26          1    1.000       0.000    
   108 obs2_27          1    1.000       0.000    
   109 obs2_28          1    1.000       0.000    
   110 obs2_29          1    1.000       0.000    
   111 obs2_30          1    1.000       0.000    
   112 obs2_31          1    1.000       0.000    
   113 obs2_32          1    1.000       0.000    
   114 obs2_33          1    1.000       0.000    
   115 obs2_34          1    1.000       0.000    
   116 obs2_35          1    1.000       0.000    
   117 obs2_36          1    1.000       0.000    
   118 obs2_37          1    1.000       0.000    
   119 obs2_38          1    1.000       0.000    
   120 obs2_39          1    1.000       0.000    
   121 obs2_40          1    1.000       0.000    
   122 obs2_41          1    1.000       0.000    
   123 obs2_42          1    1.000       0.000    
   124 obs2_43          1    1.000       0.000    
   125 obs2_44          1    1.000       0.000    
   126 obs2_45          1    1.000       0.000    
   127 obs2_46          1    1.000       0.000    
   128 obs2_47          1    1.000       0.000    
   129 obs2_48          1    1.000       0.000    
   130 obs2_49          1    1.000       0.000    
   131 obs2_50          1    1.000       0.000    
   132 obs2_51          1    1.000       0.000    
   133 obs2_52          1    1.000       0.000    
   134 obs2_53          1    1.000       0.000    
   135 obs2_54          1    1.000       0.000    
   136 obs2_55          1    1.000       0.000    
   137 obs2_56          1    1.000       0.000    
   138 obs2_57          1    1.000       0.000    
   139 obs2_58          1    1.000       0.000    
   140 obs2_59          1    1.000       0.000    
   141 obs2_60          1    1.000       0.000    
   142 obs2_61          1    1.000       0.000    
   143 obs2_62          1    1.000       0.000    
   144 obs2_63          1    1.000       0.000    
   145 obs2_64          1    1.000       0.000    
   146 obs2_65          1    1.000       0.000    
   147 obs2_66          1    1.000       0.000    
   148 obs2_67          1    1.000       0.000    
   149 obs2_68          1    1.000       0.000    
   150 obs2_69          1    1.000       0.000    
   151 obs2_70          1    1.000       0.000    
   152 obs2_71          1    1.000       0.000    
   153 obs2_72          1    1.000       0.000    
   154 obs2_73          1    1.000       0.000    
   155 obs2_74          1    1.000       0.000    
   156 obs2_75          1    1.000       0.000    
   157 obs2_76          1    1.000       0.000    
   158 obs2_77          1    1.000       0.000    
   159 obs2_78          1    1.000       0.000    
   160 obs2_79          1    1.000       0.000    
   161 obs2_80          1    1.000       0.000    
   162 obs2_81          1    1.000       0.000    
   163 obs3_01          1    1.000       0.000    
   164 obs3_02          1    1.000       0.000    
   165 obs3_03          1    1.000       0.000    
   166 obs3_04          1    1.000       0.000    
   167 obs3_05          1    1.000       0.000    
   168 obs3_06          1    1.000       0.000    
   169 obs3_07          1    1.000       0.000    
   170 obs3_08          1    1.000       0.000    
   171 obs3_09          1    1.000       0.000    
   172 obs3_10          1    1.000       0.000    
   173 obs3_11          1    1.000       0.000    
   174 obs3_12          1    1.000       0.000    
   175 obs3_13          1    1.000       0.000    
   176 obs3_14          1    1.000       0.000    
   177 obs3_15          1    1.000       0.000    
   178 obs3_16          1    1.000       0.000    
   179 obs3_17          1    1.000       0.000    
   180 obs3_18          1    1.000       0.000    
   181 obs3_19          1    1.000       0.000    
   182 obs3_20          1    1.000       0.000    
   183 obs3_21          1    1.000       0.000    
   184 obs3_22          1    1.000       0.000    
   185 obs3_23          1    1.000       0.000    
   186 obs3_24          1    1.000       0.000    
   187 obs3_25          1    1.000       0.000    
   188 obs3_26          1    1.000       0.000    
   189 obs3_27          1    1.000       0.000    
   190 obs3_28          1    1.000       0.000    
   191 obs3_29          1    1.000       0.000    
   192 obs3_30          1    1.000       0.000    
   193 obs3_31          1    1.000       0.000    
   194 obs3_32          1    1.000       0.000    
   195 obs3_33          1    1.000       0.000    
   196 obs3_34          1    1.000       0.000    
   197 obs3_35          1    1.000       0.000    
   198 obs3_36          1    1.000       0.000    
   199 obs3_37          1    1.000       0.000    
   200 obs3_38          1    1.000       0.000    
   201 obs3_39          1    1.000       0.000    
   202 obs3_40          1    1.000       0.000    
   203 obs3_41          1    1.000       0.000    
   204 obs3_42          1    1.000       0.000    
   205 obs3_43          1    1.000       0.000    
   206 obs3_44          1    1.000       0.000    
   207 obs3_45          1    1.000       0.000    
   208 obs3_46          1    1.000       0.000    
   209 obs3_47          1    1.000       0.000    
   210 obs3_48          1    1.000       0.000    
   211 obs3_49          1    1.000       0.000    
   212 obs3_50          1    1.000       0.000    
   213 obs3_51          1    1.000       0.000    
   214 obs3_52          1    1.000       0.000    
   215 obs3_53          1    1.000       0.000    
   216 obs3_54          1    1.000       0.000    
   217 obs3_55          1    1.000       0.000    
   218 obs3_56          1    1.000       0.000    
   219 obs3_57          1    1.000       0.000    
   220 obs3_58          1    1.000       0.000    
   221 obs3_59          1    1.000       0.000    
   222 obs3_60          1    1.000       0.000    
   223 obs3_61          1    1.000       0.000    
   224 obs3_62          1    1.000       0.000    
   225 obs3_63          1    1.000       0.000    
   226 obs3_64          1    1.000       0.000    
   227 obs3_65          1    1.000       0.000    
   228 obs3_66          1    1.000       0.000    
   229 obs3_67          1    1.000       0.000    
   230 obs3_68          1    1.000       0.000    
   231 obs3_69          1    1.000       0.000    
   232 obs3_70          1    1.000       0.000    
   233 obs3_71          1    1.000       0.000    
   234 obs3_72          1    1.000       0.000    
   235 obs3_73          1    1.000       0.000    
   236 obs3_74          1    1.000       0.000    
   237 obs3_75          1    1.000       0.000    
   238 obs3_76          1    1.000       0.000    
   239 obs3_77          1    1.000       0.000    
   240 obs3_78          1    1.000       0.000    
   241 obs3_79          1    1.000       0.000    
   242 obs3_80          1    1.000       0.000    
   243 obs3_81          1    1.000       0.000    

                                                     HEAD CHANGE
                                                      REFERENCE
        OBSERVATION                   ROW     COL    OBSERVATION
  OBS#     NAME       LAY  ROW  COL  OFFSET  OFFSET   (IF > 0)
     1  obs1_01         1    3    5   0.000   0.000        0
     2  obs1_02         1    3    8   0.000   0.000        0
     3  obs1_03         1    3   11   0.000   0.000        0
     4  obs1_04         1    3   14   0.000   0.000        0
     5  obs1_05         1    3   17   0.000   0.000        0
     6  obs1_06         1    3   20   0.000   0.000        0
     7  obs1_07         1    3   23   0.000   0.000        0
     8  obs1_08         1    3   26   0.000   0.000        0
     9  obs1_09         1    3   29   0.000   0.000        0
    10  obs1_10         1    7    5   0.000   0.000        0
    11  obs1_11         1    7    8   0.000   0.000        0
    12  obs1_12         1    7   11   0.000   0.000        0
    13  obs1_13         1    7   14   0.000   0.000        0
    14  obs1_14         1    7   17   0.000   0.000        0
    15  obs1_15         1    7   20   0.000   0.000        0
    16  obs1_16         1    7   23   0.000   0.000        0
    17  obs1_17         1    7   26   0.000   0.000        0
    18  obs1_18         1    7   29   0.000   0.000        0
    19  obs1_19         1   11    5   0.000   0.000        0
    20  obs1_20         1   11    8   0.000   0.000        0
    21  obs1_21         1   11   11   0.000   0.000        0
    22  obs1_22         1   11   14   0.000   0.000        0
    23  obs1_23         1   11   17   0.000   0.000        0
    24  obs1_24         1   11   20   0.000   0.000        0
    25  obs1_25         1   11   23   0.000   0.000        0
    26  obs1_26         1   11   26   0.000   0.000        0
    27  obs1_27         1   11   29   0.000   0.000        0
[...]
    234      3     38     35       58.00           58.00           0.000    
    235      1     39     35       58.00           58.00           0.000    
    236      2     39     35       58.00           58.00           0.000    
    237      3     39     35       58.00           58.00           0.000    
    238      1     40     35       58.00           58.00           0.000    
    239      2     40     35       58.00           58.00           0.000    
    240      3     40     35       58.00           58.00           0.000    


    240 TIME-VARIANT SPECIFIED-HEAD CELLS
 
 SOLVING FOR HEAD 


     2 CALLS TO PCG ROUTINE FOR TIME STEP   1 IN STRESS PERIOD    1
    34 TOTAL ITERATIONS

 MAXIMUM HEAD CHANGE FOR EACH ITERATION (1 INDICATES THE FIRST INNER ITERATION):

    HEAD CHANGE    HEAD CHANGE    HEAD CHANGE    HEAD CHANGE    HEAD CHANGE 
   LAYER,ROW,COL  LAYER,ROW,COL  LAYER,ROW,COL  LAYER,ROW,COL  LAYER,ROW,COL
 ---------------------------------------------------------------------------
  1  -2.136      0  0.6625      0 -0.8989      0 -0.2352      0 -0.1758    
   (  1, 18, 17)  (  1, 40, 30)  (  1, 40, 29)  (  1, 40, 14)  (  1, 40, 11)
  0 -0.1286      0 -0.6358E-01  0 -0.7158E-01  0  0.4110E-01  0 -0.2790E-01
   (  1, 18, 17)  (  3, 15, 19)  (  3, 12, 24)  (  3,  1, 15)  (  3, 12, 21)
  0 -0.1759E-01  0 -0.1144E-01  0  0.8866E-02  0  0.5413E-02  0 -0.3428E-02
   (  3, 17, 18)  (  1, 15, 20)  (  1,  9, 19)  (  1, 40, 24)  (  1, 37, 20)
  0  0.1938E-02  0 -0.1272E-02  0  0.7445E-03  0  0.6406E-03  0 -0.5644E-03
   (  1, 40, 21)  (  1, 12, 24)  (  1, 17, 27)  (  1, 38, 28)  (  1, 40, 29)
  0 -0.2318E-03  0  0.1395E-03  0  0.1048E-03  0  0.3278E-04  0 -0.2611E-04
   (  3, 16, 19)  (  3,  8, 15)  (  1, 38, 17)  (  1, 18, 28)  (  3, 21, 14)
  0  0.2056E-04  0 -0.1247E-04  0  0.7081E-05  0  0.4579E-05  0 -0.2782E-05
   (  1, 38, 15)  (  1,  6, 27)  (  1, 10, 30)  (  1, 36, 26)  (  1, 39, 30)
  0  0.1970E-05  0  0.1166E-05  0  0.6217E-06  1 -0.4436E-06
   (  3, 13, 25)  (  1,  5, 28)  (  1,  9, 12)  (  1,  8, 13)

 MAXIMUM RESIDUAL FOR EACH ITERATION (1 INDICATES THE FIRST INNER ITERATION):

    RESIDUAL       RESIDUAL       RESIDUAL       RESIDUAL       RESIDUAL    
   LAYER,ROW,COL  LAYER,ROW,COL  LAYER,ROW,COL  LAYER,ROW,COL  LAYER,ROW,COL
 ---------------------------------------------------------------------------
  1  0.4447E-01  0  0.4018E-01  0  0.3428E-01  0  0.2694E-01  0  0.1856E-01
   (  2,  1, 34)  (  2,  1, 34)  (  2,  1, 34)  (  2,  1, 34)  (  2,  1, 34)
  0  0.1252E-01  0  0.7921E-02  0 -0.4481E-02  0 -0.3128E-02  0  0.2272E-02
   (  2,  1, 34)  (  2,  1, 34)  (  2,  2, 34)  (  2,  2, 34)  (  2,  2, 33)
  0  0.1528E-02  0  0.9277E-03  0  0.5386E-03  0  0.3030E-03  0 -0.1993E-03
   (  2,  2, 33)  (  2,  2, 33)  (  2,  2, 33)  (  2,  2, 33)  (  2,  3, 33)
  0 -0.1210E-03  0 -0.7156E-04  0  0.4618E-04  0  0.3281E-04  0  0.2385E-04
   (  2,  3, 33)  (  2,  3, 33)  (  2,  3, 32)  (  2,  3, 32)  (  2,  3, 32)
  0  0.1640E-04  0  0.1061E-04  0  0.6399E-05  0  0.3597E-05  0 -0.2150E-05
   (  2,  3, 32)  (  2,  3, 32)  (  2,  3, 32)  (  2,  3, 32)  (  2,  4, 32)
  0 -0.1329E-05  0  0.7602E-06  0  0.5322E-06  0  0.3823E-06  0  0.2708E-06
   (  2,  4, 32)  (  2,  4, 31)  (  2,  4, 31)  (  2,  4, 31)  (  2,  4, 31)
  0  0.1507E-06  0 -0.7556E-07  0 -0.4725E-07  1 -0.3968E-07
   (  2,  4, 31)  (  2,  5, 31)  (  2,  5, 31)  (  2,  5, 31)



 OUTPUT CONTROL FOR STRESS PERIOD    1   TIME STEP   1
    SAVE HEAD FOR ALL LAYERS

 HEAD WILL BE SAVED ON UNIT   30 AT END OF TIME STEP   1, STRESS PERIOD    1
1
  VOLUMETRIC BUDGET FOR ENTIRE MODEL AT END OF TIME STEP  1 IN STRESS PERIOD   1
  ------------------------------------------------------------------------------

     CUMULATIVE VOLUMES      L**3       RATES FOR THIS TIME STEP      L**3/T
     ------------------                 ------------------------

           IN:                                      IN:
           ---                                      ---
             STORAGE =           0.0000               STORAGE =           0.0000
       CONSTANT HEAD =           0.1351         CONSTANT HEAD =           0.1351
               WELLS =           0.0000                 WELLS =           0.0000

            TOTAL IN =           0.1351              TOTAL IN =           0.1351

          OUT:                                     OUT:
          ----                                     ----
             STORAGE =           0.0000               STORAGE =           0.0000
       CONSTANT HEAD =       9.0120E-02         CONSTANT HEAD =       9.0120E-02
               WELLS =       4.5000E-02                 WELLS =       4.5000E-02

           TOTAL OUT =           0.1351             TOTAL OUT =           0.1351

            IN - OUT =      -2.9802E-08              IN - OUT =      -2.9802E-08

 PERCENT DISCREPANCY =           0.00     PERCENT DISCREPANCY =           0.00






          TIME SUMMARY AT END OF TIME STEP   1 IN STRESS PERIOD    1
                    SECONDS     MINUTES      HOURS       DAYS        YEARS
                    -----------------------------------------------------------
   TIME STEP LENGTH  1.0000     1.66667E-02 2.77778E-04 1.15741E-05 3.16881E-08
 STRESS PERIOD TIME  1.0000     1.66667E-02 2.77778E-04 1.15741E-05 3.16881E-08
         TOTAL TIME  1.0000     1.66667E-02 2.77778E-04 1.15741E-05 3.16881E-08
1

 HEAD AND DRAWDOWN OBSERVATIONS
 OBSERVATION      OBSERVED      SIMULATED
   NAME             VALUE         VALUE      DIFFERENCE
 -------------------------------------------------------
 obs1_01         0.00000       59.7639      -59.7639    
 obs1_02         0.00000       59.5396      -59.5396    
 obs1_03         0.00000       59.2784      -59.2784    
 obs1_04         0.00000       59.0019      -59.0019    
 obs1_05         0.00000       58.7922      -58.7922    
 obs1_06         0.00000       58.6219      -58.6219    
 obs1_07         0.00000       58.4605      -58.4605    
 obs1_08         0.00000       58.3136      -58.3136    
 obs1_09         0.00000       58.2008      -58.2008    
 obs1_10         0.00000       59.7677      -59.7677    
 obs1_11         0.00000       59.5426      -59.5426    
 obs1_12         0.00000       59.2762      -59.2762    
 obs1_13         0.00000       58.9866      -58.9866    
 obs1_14         0.00000       58.7683      -58.7683    
 obs1_15         0.00000       58.5984      -58.5984    
 obs1_16         0.00000       58.4425      -58.4425    
 obs1_17         0.00000       58.3019      -58.3019    
 obs1_18         0.00000       58.1943      -58.1943    
 obs1_19         0.00000       59.7687      -59.7687    
 obs1_20         0.00000       59.5394      -59.5394    
 obs1_21         0.00000       59.2612      -59.2612    
 obs1_22         0.00000       58.9419      -58.9419    
 obs1_23         0.00000       58.7015      -58.7015    
 obs1_24         0.00000       58.5438      -58.5438    
 obs1_25         0.00000       58.4099      -58.4099    
 obs1_26         0.00000       58.2857      -58.2857    
 obs1_27         0.00000       58.1872      -58.1872    
 obs1_28         0.00000       59.7635      -59.7635    
 obs1_29         0.00000       59.5303      -59.5303    
 obs1_30         0.00000       59.2415      -59.2415    
 obs1_31         0.00000       58.8661      -58.8661    
 obs1_32         0.00000       58.5307      -58.5307    
 obs1_33         0.00000       58.4630      -58.4630    
 obs1_34         0.00000       58.3828      -58.3828    
 obs1_35         0.00000       58.2786      -58.2786    
 obs1_36         0.00000       58.1868      -58.1868    
 obs1_37         0.00000       59.7546      -59.7546    
 obs1_38         0.00000       59.5238      -59.5238    
 obs1_39         0.00000       59.2447      -59.2447    
 obs1_40         0.00000       58.8510      -58.8510    
 obs1_41         0.00000       58.2822      -58.2822    
 obs1_42         0.00000       58.4395      -58.4395    
 obs1_43         0.00000       58.3903      -58.3903    
 obs1_44         0.00000       58.2916      -58.2916    
 obs1_45         0.00000       58.1989      -58.1989    
 obs1_46         0.00000       59.7418      -59.7418    
 obs1_47         0.00000       59.5168      -59.5168    
 obs1_48         0.00000       59.2673      -59.2673    
 obs1_49         0.00000       58.9636      -58.9636    
 obs1_50         0.00000       58.7060      -58.7060    
 obs1_51         0.00000       58.5612      -58.5612    
 obs1_52         0.00000       58.4419      -58.4419    
 obs1_53         0.00000       58.3249      -58.3249    
 obs1_54         0.00000       58.2240      -58.2240    
 obs1_55         0.00000       59.7225      -59.7225    
 obs1_56         0.00000       59.5019      -59.5019    
 obs1_57         0.00000       59.2796      -59.2796    
 obs1_58         0.00000       59.0325      -59.0325    
 obs1_59         0.00000       58.8219      -58.8219    
 obs1_60         0.00000       58.6469      -58.6469    
 obs1_61         0.00000       58.4931      -58.4931    
 obs1_62         0.00000       58.3607      -58.3607    
 obs1_63         0.00000       58.2516      -58.2516    
 obs1_64         0.00000       59.7059      -59.7059    
 obs1_65         0.00000       59.4867      -59.4867    
 obs1_66         0.00000       59.2780      -59.2780    
 obs1_67         0.00000       59.0532      -59.0532    
 obs1_68         0.00000       58.8560      -58.8560    
 obs1_69         0.00000       58.6788      -58.6788    
 obs1_70         0.00000       58.5191      -58.5191    
 obs1_71         0.00000       58.3831      -58.3831    
 obs1_72         0.00000       58.2703      -58.2703    
 obs1_73         0.00000       59.6938      -59.6938    
 obs1_74         0.00000       59.4732      -59.4732    
 obs1_75         0.00000       59.2695      -59.2695    
 obs1_76         0.00000       59.0544      -59.0544    
 obs1_77         0.00000       58.8632      -58.8632    
 obs1_78         0.00000       58.6879      -58.6879    
 obs1_79         0.00000       58.5299      -58.5299    
 obs1_80         0.00000       58.3955      -58.3955    
 obs1_81         0.00000       58.2811      -58.2811    
 obs2_01         0.00000       59.6952      -59.6952    
 obs2_02         0.00000       59.5000      -59.5000    
 obs2_03         0.00000       59.2583      -59.2583    
 obs2_04         0.00000       58.9784      -58.9784    
 obs2_05         0.00000       58.7517      -58.7517    
 obs2_06         0.00000       58.5589      -58.5589    
 obs2_07         0.00000       58.4055      -58.4055    
 obs2_08         0.00000       58.2752      -58.2752    
 obs2_09         0.00000       58.1668      -58.1668    
 obs2_10         0.00000       59.6877      -59.6877    
 obs2_11         0.00000       59.4895      -59.4895    
 obs2_12         0.00000       59.2432      -59.2432    
 obs2_13         0.00000       58.9583      -58.9583    
 obs2_14         0.00000       58.7318      -58.7318    
 obs2_15         0.00000       58.5419      -58.5419    
 obs2_16         0.00000       58.3933      -58.3933    
 obs2_17         0.00000       58.2668      -58.2668    
 obs2_18         0.00000       58.1613      -58.1613    
 obs2_19         0.00000       59.6740      -59.6740    
 obs2_20         0.00000       59.4666      -59.4666    
 obs2_21         0.00000       59.2088      -59.2088    
 obs2_22         0.00000       58.9109      -58.9109    
 obs2_23         0.00000       58.6811      -58.6811    
 obs2_24         0.00000       58.5046      -58.5046    
 obs2_25         0.00000       58.3712      -58.3712    
 obs2_26         0.00000       58.2540      -58.2540    
 obs2_27         0.00000       58.1537      -58.1537    
 obs2_28         0.00000       59.6607      -59.6607    
 obs2_29         0.00000       59.4460      -59.4460    
 obs2_30         0.00000       59.1786      -59.1786    
 obs2_31         0.00000       58.8574      -58.8574    
 obs2_32         0.00000       58.5960      -58.5960    
 obs2_33         0.00000       58.4641      -58.4641    
 obs2_34         0.00000       58.3571      -58.3571    
 obs2_35         0.00000       58.2493      -58.2493    
 obs2_36         0.00000       58.1517      -58.1517    
 obs2_37         0.00000       59.6565      -59.6565    
 obs2_38         0.00000       59.4402      -59.4402    
 obs2_39         0.00000       59.1735      -59.1735    
 obs2_40         0.00000       58.8435      -58.8435    
 obs2_41         0.00000       58.4980      -58.4980    
 obs2_42         0.00000       58.4560      -58.4560    
 obs2_43         0.00000       58.3639      -58.3639    
 obs2_44         0.00000       58.2583      -58.2583    
 obs2_45         0.00000       58.1582      -58.1582    
 obs2_46         0.00000       59.6601      -59.6601    
 obs2_47         0.00000       59.4470      -59.4470    
 obs2_48         0.00000       59.1944      -59.1944    
 obs2_49         0.00000       58.9061      -58.9061    
 obs2_50         0.00000       58.6782      -58.6782    
 obs2_51         0.00000       58.5193      -58.5193    
 obs2_52         0.00000       58.4009      -58.4009    
 obs2_53         0.00000       58.2872      -58.2872    
 obs2_54         0.00000       58.1778      -58.1778    
 obs2_55         0.00000       59.6635      -59.6635    
 obs2_56         0.00000       59.4531      -59.4531    
 obs2_57         0.00000       59.2127      -59.2127    
 obs2_58         0.00000       58.9526      -58.9526    
 obs2_59         0.00000       58.7462      -58.7462    
 obs2_60         0.00000       58.5727      -58.5727    
 obs2_61         0.00000       58.4421      -58.4421    
 obs2_62         0.00000       58.3232      -58.3232    
 obs2_63         0.00000       58.2050      -58.2050    
 obs2_64         0.00000       59.6655      -59.6655    
 obs2_65         0.00000       59.4543      -59.4543    
 obs2_66         0.00000       59.2180      -59.2180    
 obs2_67         0.00000       58.9692      -58.9692    
 obs2_68         0.00000       58.7706      -58.7706    
 obs2_69         0.00000       58.5997      -58.5997    
 obs2_70         0.00000       58.4712      -58.4712    
 obs2_71         0.00000       58.3543      -58.3543    
 obs2_72         0.00000       58.2319      -58.2319    
 obs2_73         0.00000       59.6668      -59.6668    
 obs2_74         0.00000       59.4525      -59.4525    
 obs2_75         0.00000       59.2154      -59.2154    
 obs2_76         0.00000       58.9706      -58.9706    
 obs2_77         0.00000       58.7756      -58.7756    
 obs2_78         0.00000       58.6099      -58.6099    
 obs2_79         0.00000       58.4863      -58.4863    
 obs2_80         0.00000       58.3734      -58.3734    
 obs2_81         0.00000       58.2506      -58.2506    
 obs3_01         0.00000       59.6642      -59.6642    
 obs3_02         0.00000       59.3949      -59.3949    
 obs3_03         0.00000       59.0993      -59.0993    
 obs3_04         0.00000       58.8733      -58.8733    
 obs3_05         0.00000       58.6903      -58.6903    
 obs3_06         0.00000       58.5368      -58.5368    
 obs3_07         0.00000       58.3892      -58.3892    
 obs3_08         0.00000       58.2701      -58.2701    
 obs3_09         0.00000       58.1612      -58.1612    
 obs3_10         0.00000       59.6675      -59.6675    
 obs3_11         0.00000       59.4018      -59.4018    
 obs3_12         0.00000       59.1006      -59.1006    
 obs3_13         0.00000       58.8672      -58.8672    
 obs3_14         0.00000       58.6783      -58.6783    
 obs3_15         0.00000       58.5274      -58.5274    
 obs3_16         0.00000       58.3848      -58.3848    
 obs3_17         0.00000       58.2693      -58.2693    
 obs3_18         0.00000       58.1605      -58.1605    
 obs3_19         0.00000       59.6720      -59.6720    
 obs3_20         0.00000       59.4104      -59.4104    
 obs3_21         0.00000       59.1003      -59.1003    
 obs3_22         0.00000       58.8475      -58.8475    
 obs3_23         0.00000       58.6408      -58.6408    
 obs3_24         0.00000       58.4999      -58.4999    
 obs3_25         0.00000       58.3749      -58.3749    
 obs3_26         0.00000       58.2684      -58.2684    
 obs3_27         0.00000       58.1608      -58.1608    
 obs3_28         0.00000       59.6784      -59.6784    
 obs3_29         0.00000       59.4231      -59.4231    
 obs3_30         0.00000       59.1033      -59.1033    
 obs3_31         0.00000       58.8082      -58.8082    
 obs3_32         0.00000       58.5316      -58.5316    
 obs3_33         0.00000       58.4481      -58.4481    
 obs3_34         0.00000       58.3655      -58.3655    
 obs3_35         0.00000       58.2719      -58.2719    
 obs3_36         0.00000       58.1651      -58.1651    
 obs3_37         0.00000       59.6876      -59.6876    
 obs3_38         0.00000       59.4421      -59.4421    
 obs3_39         0.00000       59.1264      -59.1264    
 obs3_40         0.00000       58.8111      -58.8111    
 obs3_41         0.00000       58.3932      -58.3932    
 obs3_42         0.00000       58.4400      -58.4400    
 obs3_43         0.00000       58.3775      -58.3775    
 obs3_44         0.00000       58.2869      -58.2869    
 obs3_45         0.00000       58.1755      -58.1755    
 obs3_46         0.00000       59.6990      -59.6990    
 obs3_47         0.00000       59.4672      -59.4672    
 obs3_48         0.00000       59.1726      -59.1726    
 obs3_49         0.00000       58.8998      -58.8998    
 obs3_50         0.00000       58.6573      -58.6573    
 obs3_51         0.00000       58.5254      -58.5254    
 obs3_52         0.00000       58.4198      -58.4198    
 obs3_53         0.00000       58.3188      -58.3188    
 obs3_54         0.00000       58.1964      -58.1964    
 obs3_55         0.00000       59.7062      -59.7062    
 obs3_56         0.00000       59.4838      -59.4838    
 obs3_57         0.00000       59.2065      -59.2065    
 obs3_58         0.00000       58.9567      -58.9567    
 obs3_59         0.00000       58.7364      -58.7364    
 obs3_60         0.00000       58.5835      -58.5835    
 obs3_61         0.00000       58.4593      -58.4593    
 obs3_62         0.00000       58.3515      -58.3515    
 obs3_63         0.00000       58.2199      -58.2199    
 obs3_64         0.00000       59.7083      -59.7083    
 obs3_65         0.00000       59.4895      -59.4895    
 obs3_66         0.00000       59.2212      -59.2212    
 obs3_67         0.00000       58.9794      -58.9794    
 obs3_68         0.00000       58.7648      -58.7648    
 obs3_69         0.00000       58.6105      -58.6105    
 obs3_70         0.00000       58.4857      -58.4857    
 obs3_71         0.00000       58.3777      -58.3777    
 obs3_72         0.00000       58.2420      -58.2420    
 obs3_73         0.00000       59.7057      -59.7057    
 obs3_74         0.00000       59.4853      -59.4853    
 obs3_75         0.00000       59.2194      -59.2194    
 obs3_76         0.00000       58.9791      -58.9791    
 obs3_77         0.00000       58.7677      -58.7677    
 obs3_78         0.00000       58.6163      -58.6163    
 obs3_79         0.00000       58.4955      -58.4955    
 obs3_80         0.00000       58.3898      -58.3898    
 obs3_81         0.00000       58.2548      -58.2548    

 SUM OF SQUARED DIFFERENCE:    8.41117E+05

 Run end date and time (yyyy/mm/dd hh:mm:ss): 2017/09/20  4:25:12
 Elapsed run time:  0.062 Seconds

